Initialize SIGNATURE TABLE
ST_SET: 1
ST_WAY: 256
ST_TAG_BIT: 16
ST_TAG_MASK: ffff

Initialize PATTERN TABLE
PT_SET: 512
PT_WAY: 4
SIG_DELTA_BIT: 7
C_SIG_BIT: 4
C_DELTA_BIT: 4

Initialize PREFETCH FILTER
FILTER_SET: 1024

*** ChampSim Multicore Out-of-Order Simulator ***

Warmup Instructions: 50000000
Simulation Instructions: 50000000
Number of CPUs: 1
LLC sets: 2048
LLC ways: 16
Off-chip DRAM Size: 4096 MB Channels: 1 Width: 64-bit Data Rate: 3200 MT/s

CPU 0 runs /ChampSim-master-BTBX/dpc3_traces/server_021.champsimtrace.xz
Basic BTB sets: 4096 ways: 4 indirect buffer size: 4096 RAS size: 64
CPU 0 L1D next line prefetcher
Heartbeat CPU 0 instructions: 10000000 cycles: 3625394 heartbeat IPC: 2.75832 cumulative IPC: 2.75832 (Simulation time: 0 hr 0 min 19 sec) 
Heartbeat CPU 0 instructions: 20000000 cycles: 7245575 heartbeat IPC: 2.76229 cumulative IPC: 2.76031 (Simulation time: 0 hr 0 min 37 sec) 
Heartbeat CPU 0 instructions: 30000003 cycles: 10896566 heartbeat IPC: 2.73898 cumulative IPC: 2.75316 (Simulation time: 0 hr 0 min 55 sec) 
Heartbeat CPU 0 instructions: 40000001 cycles: 14511740 heartbeat IPC: 2.76612 cumulative IPC: 2.75639 (Simulation time: 0 hr 1 min 14 sec) 
Heartbeat CPU 0 instructions: 50000002 cycles: 18148786 heartbeat IPC: 2.74948 cumulative IPC: 2.75501 (Simulation time: 0 hr 1 min 32 sec) 

Warmup complete CPU 0 instructions: 50000002 cycles: 18148786 (Simulation time: 0 hr 1 min 32 sec) 

Heartbeat CPU 0 instructions: 60000001 cycles: 37144827 heartbeat IPC: 0.526425 cumulative IPC: 0.526425 (Simulation time: 0 hr 1 min 55 sec) 
Heartbeat CPU 0 instructions: 70000003 cycles: 56298398 heartbeat IPC: 0.522096 cumulative IPC: 0.524252 (Simulation time: 0 hr 2 min 18 sec) 
Heartbeat CPU 0 instructions: 80000001 cycles: 75249960 heartbeat IPC: 0.527661 cumulative IPC: 0.525383 (Simulation time: 0 hr 2 min 41 sec) 
Heartbeat CPU 0 instructions: 90000001 cycles: 94435574 heartbeat IPC: 0.521224 cumulative IPC: 0.524337 (Simulation time: 0 hr 3 min 4 sec) 
Heartbeat CPU 0 instructions: 100000002 cycles: 113356513 heartbeat IPC: 0.528515 cumulative IPC: 0.525167 (Simulation time: 0 hr 3 min 27 sec) 
Finished CPU 0 instructions: 50000000 cycles: 95207727 cumulative IPC: 0.525167 (Simulation time: 0 hr 3 min 27 sec) 

ChampSim completed all CPUs

Region of Interest Statistics

CPU 0
XXX cumulative-IPC 0.525167
XXX instructions 50000000
XXX cycles 95207727
L1D TOTAL     ACCESS:   19654406  HIT:   17449919  MISS:    2204487
L1D LOAD      ACCESS:    7471449  HIT:    6793606  MISS:     677843
L1D RFO       ACCESS:    5927841  HIT:    4951284  MISS:     976557
L1D PREFETCH  ACCESS:    6255116  HIT:    5705029  MISS:     550087
L1D WRITEBACK ACCESS:          0  HIT:          0  MISS:          0
L1D PREFETCH  REQUESTED:    7517743  ISSUED:    7349791
XXX L1D-USEFUL 227930
XXX L1D-USELESS 322152
L1D AVERAGE MISS LATENCY: 169.81 cycles
L1I TOTAL     ACCESS:   14577269  HIT:   11482805  MISS:    3094464
L1I LOAD      ACCESS:   10481019  HIT:    8600727  MISS:    1880292
L1I RFO       ACCESS:          0  HIT:          0  MISS:          0
L1I PREFETCH  ACCESS:    4096250  HIT:    2882078  MISS:    1214172
L1I WRITEBACK ACCESS:          0  HIT:          0  MISS:          0
L1I PREFETCH  REQUESTED:    6929419  ISSUED:    6929419
XXX L1I-USEFUL 717295
XXX L1I-USELESS 496889
L1I AVERAGE MISS LATENCY: 15.5255 cycles
L2C TOTAL     ACCESS:    8260413  HIT:    6368862  MISS:    1891551
L2C LOAD      ACCESS:    2133964  HIT:    1819399  MISS:     314565
L2C RFO       ACCESS:     975998  HIT:      20300  MISS:     955698
L2C PREFETCH  ACCESS:    3970190  HIT:    3351234  MISS:     618956
L2C WRITEBACK ACCESS:    1180261  HIT:    1177929  MISS:       2332
L2C PREFETCH  REQUESTED:    4883664  ISSUED:    4878410
XXX L2C-USEFUL 37209
XXX L2C-USELESS 581661
L2C AVERAGE MISS LATENCY: 200.596 cycles
LLC TOTAL     ACCESS:    4012396  HIT:    2605766  MISS:    1406630
LLC LOAD      ACCESS:     314454  HIT:     229266  MISS:      85188
LLC RFO       ACCESS:     955621  HIT:     143506  MISS:     812115
LLC PREFETCH  ACCESS:    1627733  HIT:    1120534  MISS:     507199
LLC WRITEBACK ACCESS:    1114588  HIT:    1112460  MISS:       2128
LLC PREFETCH  REQUESTED:          0  ISSUED:          0
XXX LLC-USEFUL 31737
XXX LLC-USELESS 473543
LLC AVERAGE MISS LATENCY: 272.889 cycles
Major fault: 0 Minor fault: 22292
XXX disp-0 1834295
XXX disp-1 0
XXX disp-2 0
XXX disp-3 836370
XXX disp-4 867157
XXX disp-5 1140137
XXX disp-6 1429374
XXX disp-7 642929
XXX disp-8 616171
XXX disp-9 393404
XXX disp-10 246453
XXX disp-11 211796
XXX disp-12 130436
XXX disp-13 129465
XXX disp-14 129607
XXX disp-15 143055
XXX disp-16 206327
XXX disp-17 72608
XXX disp-18 214532
XXX disp-19 169483
XXX disp-20 102319
XXX disp-21 32482
XXX disp-22 9781
XXX disp-23 201593
XXX disp-24 0
XXX disp-25 0
XXX disp-26 0
XXX disp-27 0
XXX disp-28 0
XXX disp-29 0
XXX disp-30 0
XXX disp-31 0
XXX disp-32 0
XXX disp-33 0
XXX disp-34 0
XXX disp-35 0
XXX disp-36 0
XXX disp-37 0
XXX disp-38 0
XXX disp-39 0
XXX disp-40 0
XXX disp-41 0
XXX disp-42 0
XXX disp-43 0
XXX disp-44 0
XXX disp-45 0
XXX disp-46 100981
XXX disp-47 0
XXX disp-48 0
XXX disp-49 0
XXX disp-50 0
XXX disp-51 0
XXX disp-52 0
XXX disp-53 0
XXX disp-54 0
XXX disp-55 0
XXX disp-56 0
XXX disp-57 0
XXX disp-58 0
XXX disp-59 0
XXX disp-60 0
XXX disp-61 0
XXX disp-62 0
XXX disp-63 0
XXX disp-64 0
XXX disp-65 0
XXX diffBits-0 1834295
XXX diffBits-1 0
XXX diffBits-2 709085
XXX diffBits-3 473565
XXX diffBits-4 425897
XXX diffBits-5 1092759
XXX diffBits-6 770925
XXX diffBits-7 585492
XXX diffBits-8 572911
XXX diffBits-9 1015197
XXX diffBits-10 306857
XXX diffBits-11 356419
XXX diffBits-12 108615
XXX diffBits-13 135033
XXX diffBits-14 107077
XXX diffBits-15 144136
XXX diffBits-16 326199
XXX diffBits-17 35763
XXX diffBits-18 118085
XXX diffBits-19 306913
XXX diffBits-20 101182
XXX diffBits-21 31613
XXX diffBits-22 201756
XXX diffBits-23 0
XXX diffBits-24 0
XXX diffBits-25 0
XXX diffBits-26 0
XXX diffBits-27 0
XXX diffBits-28 0
XXX diffBits-29 0
XXX diffBits-30 0
XXX diffBits-31 0
XXX diffBits-32 0
XXX diffBits-33 0
XXX diffBits-34 0
XXX diffBits-35 0
XXX diffBits-36 0
XXX diffBits-37 0
XXX diffBits-38 0
XXX diffBits-39 0
XXX diffBits-40 0
XXX diffBits-41 0
XXX diffBits-42 0
XXX diffBits-43 0
XXX diffBits-44 0
XXX diffBits-45 100981
XXX diffBits-46 0
XXX diffBits-47 0
XXX diffBits-48 0
XXX diffBits-49 0
XXX diffBits-50 0
XXX diffBits-51 0
XXX diffBits-52 0
XXX diffBits-53 0
XXX diffBits-54 0
XXX diffBits-55 0
XXX diffBits-56 0
XXX diffBits-57 0
XXX diffBits-58 0
XXX diffBits-59 0
XXX diffBits-60 0
XXX diffBits-61 0
XXX diffBits-62 0
XXX diffBits-63 0
XXX diffBits-64 0
XXX diffBits-65 0
CPU 0 L1D next line prefetcher final stats

DRAM Statistics
 CHANNEL 0
 RQ ROW_BUFFER_HIT:     426058  ROW_BUFFER_MISS:     978261
 DBUS_CONGESTED:    1339236
 WQ ROW_BUFFER_HIT:     244155  ROW_BUFFER_MISS:     655234  FULL:          0

 AVG_CONGESTED_CYCLE: 6

CPU 0 Branch Prediction Accuracy: 98.132% MPKI: 3.06398 Average ROB Occupancy at Mispredict: 86.8622

XXX total_mispredicts 153199
XXX total_target_mispredicts1 138324
XXX total_target_mispredicts2 1395
XXX total_direction_mispredicts 13480
XXX mispredict_on_btb_hit 123009
XXX NOT_BRANCH: 0
XXX BRANCH_DIRECT_JUMP: 0
XXX BRANCH_INDIRECT: 0
XXX BRANCH_CONDITIONAL: 0
XXX BRANCH_DIRECT_CALL: 0
XXX BRANCH_INDIRECT_CALL: 29362
XXX BRANCH_RETURN: 93647
XXX BRANCH_OTHER: 0
Branch types
NOT_BRANCH: 41798363 83.5967%
BRANCH_DIRECT_JUMP: 445210 0.89042%
BRANCH_INDIRECT: 50481 0.100962%
BRANCH_CONDITIONAL: 5868217 11.7364%
BRANCH_DIRECT_CALL: 758222 1.51644%
BRANCH_INDIRECT_CALL: 160493 0.320986%
BRANCH_RETURN: 918715 1.83743%
BRANCH_OTHER: 0 0%

XXX BTB_reads: 1841016
XXX BTB_writes: 16710
XXX PageBTB_reads: 0
XXX PageBTB_writes: 0
XXX PageBTB_readsBeforeWrite: 0
XXX RegionBTB_reads: 0
XXX RegionBTB_writes: 0
XXX RegionBTB_readsBeforeWrite: 0
XXX BTB_4D_Hits 792581
XXX BTB_6D_Hits 933073
XXX BTB_8D_Hits 1087717
XXX BTB_12D_Hits 452661
XXX BTB_18D_Hits 568481
XXX BTB_25D_Hits 116054
XXX BTB_46D_Hits 39648
XXX BTB_Ret_Hits 918662
XXX BTB_4D_Misses 69
XXX BTB_6D_Misses 128
XXX BTB_8D_Misses 321
XXX BTB_12D_Misses 565
XXX BTB_18D_Misses 735
XXX BTB_25D_Misses 2744
XXX BTB_46D_Misses 12095
XXX BTB_Ret_Misses 53
XXX Num_unique_branches 4484
total instructions: 0
wc,tif,trb
2,5,25
8,34,46
8,22,126
7,13,58
4,23,46
6,26,40
8,35,45
3,8,42
11,28,85
11,46,144
58,403,655
12,47,199
10,45,144
11,47,112
6,7,69
5,20,45
17,106,115
5,12,13
5,9,44
5,11,28
10,61,75
5,4,23
6,6,50
5,5,22
9,25,68
5,10,30
11,56,99
5,22,42
4,7,48
11,27,110
28,223,391
5,10,26
6,13,51
7,20,51
4,4,31
7,24,47
5,1,38
5,12,32
5,5,27
5,17,45
5,7,20
380,2525,5821
4,5,22
7,21,48
5,7,55
5,4,42
5,9,42
38,437,194
253,1799,4414
553,4872,6651
4,16,39
115,541,789
10,57,53
3,3,21
5,11,33
8,35,64
201,793,4185
6,8,67
6,16,50
5,1,41
8,26,54
5,17,29
6,8,46
1,0,7
6,18,18
8,26,72
5,9,37
3,0,26
8,35,45
6,13,63
5,16,41
7,18,51
8,17,83
6,14,22
4,4,35
5,14,22
7,22,54
5,9,26
5,8,24
6,38,76
5,9,44
2,3,23
14,56,140
5,6,26
478,3954,6501
4,13,26
12,30,94
8,14,66
8,17,63
14,35,103
3,8,19
6,12,42
12,53,102
2,6,20
8,42,38
9,45,82
4,3,28
2,1,3
3,5,23
6,9,76
6,19,45
6,18,47
4,8,31
7,28,47
5,9,22
6,13,31
7,33,42
8,15,68
3,6,25
5,6,25
5,7,39
7,25,30
4,8,33
64,373,1003
5,9,34
50,336,811
4,4,42
6,15,40
6,6,44
8,26,54
5,5,36
3,15,24
5,10,33
4,8,31
6,21,89
12,140,106
13,32,134
23,171,283
35,245,510
7,29,65
7,21,34
7,16,39
135,1014,603
5,12,83
1,3,16
8,27,53
6,16,28
5,9,39
2,1,8
5,11,14
10,23,84
13,98,95
7,13,93
8,34,46
7,24,31
5,8,65
5,5,34
13,69,96
41,228,309
65,113,465
5,15,26
7,35,40
6,31,44
7,29,80
4,2,30
4,13,33
7,30,25
5,17,36
51,201,852
16,135,110
11,47,74
3,8,36
7,33,42
5,6,43
5,11,44
4,13,26
4,11,44
11,40,174
4,3,28
5,8,27
5,13,33
6,14,38
8,30,53
4,8,12
5,9,56
6,17,45
2,5,20
8,34,46
3,5,4
8,53,62
7,20,35
6,8,47
3,7,20
7,12,61
8,30,50
9,29,66
4,7,24
3,3,25
3,4,16
5,7,53
3,6,38
4,5,17
16,86,126
4,1,23
3,2,18
4,8,35
6,12,63
6,4,46
5,10,15
5,3,46
5,9,44
22,90,286
6,19,31
4,12,41
4,5,41
3,3,13
5,12,25
6,14,37
7,15,40
13,99,106
3,0,16
9,50,55
3,17,34
5,17,62
6,6,54
10,46,118
5,7,24
5,13,44
5,15,38
4,6,35
11,74,81
4,6,18
4,8,12
8,41,80
3,2,13
3,1,13
3,3,13
5,9,34
8,15,85
7,23,32
6,27,70
2,0,4
8,33,47
43,191,789
7,27,53
9,24,84
7,8,72
14,72,140
4,8,32
5,15,38
5,19,36
6,25,43
9,45,84
9,33,97
6,15,21
7,29,46
5,16,11
4,5,30
11,56,85
3,11,28
5,5,24
5,2,41
16,102,114
5,5,38
3,12,27
4,6,18
48,532,428
6,11,50
3,5,25
6,14,50
4,10,38
7,14,98
5,6,58
4,5,36
8,23,61
4,9,25
5,5,38
14,70,148
6,15,37
8,22,58
3,0,24
6,8,53
8,33,98
7,14,61
57,593,512
5,29,35
46,162,739
11,48,107
8,33,47
2,3,17
8,43,64
5,5,41
7,41,60
5,6,44
2,5,27
3,1,15
19,85,178
4,8,27
7,6,78
5,6,19
6,11,53
6,13,35
7,28,27
4,3,24
6,10,34
5,13,18
4,24,40
8,50,51
8,27,75
13,86,98
8,30,50
2,0,23
7,23,53
10,62,81
7,25,44
414,2762,5610
1,0,4
6,10,65
6,12,43
5,4,42
6,12,61
6,10,36
5,32,39
4,15,31
4,9,49
10,26,81
3,7,21
4,17,47
2,4,30
4,11,41
4,9,28
8,21,59
5,12,31
12,78,112
7,6,49
4,5,36
7,19,42
4,7,9
8,50,70
5,13,38
9,32,107
10,61,48
7,34,83
4,10,36
229,1597,3844
20,111,209
4,9,26
3,10,41
6,18,37
84,382,1394
6,38,37
90,466,1410
17,66,105
5,5,27
4,6,14
4,6,14
8,19,95
6,16,55
33,107,328
6,18,26
5,29,42
12,79,100
5,9,30
2,0,19
11,81,46
11,31,106
30,235,152
9,50,55
5,12,13
7,22,47
5,11,54
6,2,42
50,307,567
2,3,27
7,19,50
18,95,169
5,15,22
7,25,69
6,6,45
361,4030,3694
9,33,101
8,24,94
6,12,36
7,15,58
20,119,88
8,35,45
3,6,22
5,4,42
4,4,40
5,4,31
13,78,79
2,2,18
5,19,45
2,3,25
11,33,153
5,5,20
9,26,146
13,77,167
5,10,81
7,28,27
2,6,30
7,7,68
7,41,64
13,68,103
5,11,25
11,43,158
5,6,48
7,28,41
5,1,28
4,8,31
12,96,72
8,23,77
20,83,309
7,5,50
6,3,41
151,474,1885
8,34,46
5,10,83
8,67,59
6,22,33
10,29,69
8,23,57
13,53,128
13,48,175
15,128,168
5,9,38
7,36,19
7,12,64
7,16,55
6,23,52
4,6,35
3,0,31
6,6,48
31,258,199
5,13,43
3,10,38
5,4,53
3,6,18
7,33,96
7,9,60
7,17,56
7,37,43
9,33,72
45,179,920
5,3,53
9,38,86
8,25,89
7,13,78
7,21,59
5,7,24
473,3460,6464
16,121,111
3,20,35
3,7,46
14,68,120
3,1,23
7,13,56
6,9,42
7,17,54
5,15,10
128,724,2356
6,17,52
57,358,773
6,22,49
7,25,30
8,30,70
9,53,73
18,69,249
301,2376,5065
322,3273,2365
7,13,85
6,28,48
8,38,82
4,12,34
5,9,51
3,1,17
4,8,27
4,11,21
6,9,67
13,71,147
16,70,206
5,3,45
4,3,36
506,5103,5627
14,81,116
4,12,48
11,33,86
11,58,65
7,24,45
7,22,53
6,8,44
4,3,36
9,45,53
346,3228,3964
3,4,7
5,5,24
12,80,75
3,4,37
8,42,38
321,1702,4977
14,116,149
6,16,51
5,1,41
14,80,66
5,10,52
3,5,25
11,79,76
6,21,47
4,7,42
11,57,103
4,9,26
300,1043,6353
21,139,154
1,2,17
9,46,93
3,0,35
284,2645,3495
4,16,43
16,107,203
8,73,95
12,78,116
5,16,46
