Initialize SIGNATURE TABLE
ST_SET: 1
ST_WAY: 256
ST_TAG_BIT: 16
ST_TAG_MASK: ffff

Initialize PATTERN TABLE
PT_SET: 512
PT_WAY: 4
SIG_DELTA_BIT: 7
C_SIG_BIT: 4
C_DELTA_BIT: 4

Initialize PREFETCH FILTER
FILTER_SET: 1024

*** ChampSim Multicore Out-of-Order Simulator ***

Warmup Instructions: 50000000
Simulation Instructions: 50000000
Number of CPUs: 1
LLC sets: 2048
LLC ways: 16
Off-chip DRAM Size: 4096 MB Channels: 1 Width: 64-bit Data Rate: 3200 MT/s

CPU 0 runs /ChampSim-master-BTBX/dpc3_traces/server_037.champsimtrace.xz
Basic BTB sets: 4096 ways: 4 indirect buffer size: 4096 RAS size: 64
CPU 0 L1D next line prefetcher
Heartbeat CPU 0 instructions: 10000001 cycles: 3322406 heartbeat IPC: 3.00987 cumulative IPC: 3.00987 (Simulation time: 0 hr 0 min 19 sec) 
Heartbeat CPU 0 instructions: 20000002 cycles: 6642239 heartbeat IPC: 3.0122 cumulative IPC: 3.01103 (Simulation time: 0 hr 0 min 37 sec) 
Heartbeat CPU 0 instructions: 30000003 cycles: 10009797 heartbeat IPC: 2.96951 cumulative IPC: 2.99706 (Simulation time: 0 hr 0 min 55 sec) 
Heartbeat CPU 0 instructions: 40000000 cycles: 13331645 heartbeat IPC: 3.01037 cumulative IPC: 3.00038 (Simulation time: 0 hr 1 min 13 sec) 
Heartbeat CPU 0 instructions: 50000003 cycles: 16652878 heartbeat IPC: 3.01093 cumulative IPC: 3.00248 (Simulation time: 0 hr 1 min 31 sec) 

Warmup complete CPU 0 instructions: 50000003 cycles: 16652878 (Simulation time: 0 hr 1 min 31 sec) 

Heartbeat CPU 0 instructions: 60000001 cycles: 26798659 heartbeat IPC: 0.985631 cumulative IPC: 0.985631 (Simulation time: 0 hr 1 min 48 sec) 
Heartbeat CPU 0 instructions: 70000000 cycles: 37023229 heartbeat IPC: 0.978036 cumulative IPC: 0.981819 (Simulation time: 0 hr 2 min 5 sec) 
Heartbeat CPU 0 instructions: 80000002 cycles: 47179104 heartbeat IPC: 0.984652 cumulative IPC: 0.982762 (Simulation time: 0 hr 2 min 23 sec) 
Heartbeat CPU 0 instructions: 90000002 cycles: 57365076 heartbeat IPC: 0.981742 cumulative IPC: 0.982507 (Simulation time: 0 hr 2 min 40 sec) 
*** Reached end of trace for Core: 0 Repeating trace: /ChampSim-master-BTBX/dpc3_traces/server_037.champsimtrace.xz
Heartbeat CPU 0 instructions: 100000000 cycles: 67542340 heartbeat IPC: 0.982582 cumulative IPC: 0.982522 (Simulation time: 0 hr 2 min 57 sec) 
Finished CPU 0 instructions: 50000001 cycles: 50889463 cumulative IPC: 0.982522 (Simulation time: 0 hr 2 min 57 sec) 

ChampSim completed all CPUs

Region of Interest Statistics

CPU 0
XXX cumulative-IPC 0.982522
XXX instructions 50000001
XXX cycles 50889463
L1D TOTAL     ACCESS:   20623545  HIT:   19644552  MISS:     978993
L1D LOAD      ACCESS:    7266992  HIT:    6778899  MISS:     488093
L1D RFO       ACCESS:    6277613  HIT:    6211925  MISS:      65688
L1D PREFETCH  ACCESS:    7078940  HIT:    6653728  MISS:     425212
L1D WRITEBACK ACCESS:          0  HIT:          0  MISS:          0
L1D PREFETCH  REQUESTED:    7301595  ISSUED:    7190950
XXX L1D-USEFUL 119627
XXX L1D-USELESS 305590
L1D AVERAGE MISS LATENCY: 29.2195 cycles
L1I TOTAL     ACCESS:   14459453  HIT:    9505721  MISS:    4953732
L1I LOAD      ACCESS:    9344161  HIT:    6395870  MISS:    2948291
L1I RFO       ACCESS:          0  HIT:          0  MISS:          0
L1I PREFETCH  ACCESS:    5115292  HIT:    3109851  MISS:    2005441
L1I WRITEBACK ACCESS:          0  HIT:          0  MISS:          0
L1I PREFETCH  REQUESTED:    9483322  ISSUED:    9483322
XXX L1I-USEFUL 1188570
XXX L1I-USELESS 816890
L1I AVERAGE MISS LATENCY: 13.0514 cycles
L2C TOTAL     ACCESS:    9303014  HIT:    8975266  MISS:     327748
L2C LOAD      ACCESS:    3063391  HIT:    2914599  MISS:     148792
L2C RFO       ACCESS:      65477  HIT:      36668  MISS:      28809
L2C PREFETCH  ACCESS:    5883869  HIT:    5734616  MISS:     149253
L2C WRITEBACK ACCESS:     290277  HIT:     289383  MISS:        894
L2C PREFETCH  REQUESTED:    7294368  ISSUED:    7287881
XXX L2C-USEFUL 7684
XXX L2C-USELESS 141400
L2C AVERAGE MISS LATENCY: 44.8427 cycles
LLC TOTAL     ACCESS:    1684253  HIT:    1627947  MISS:      56306
LLC LOAD      ACCESS:     148763  HIT:     136080  MISS:      12683
LLC RFO       ACCESS:      28808  HIT:      24229  MISS:       4579
LLC PREFETCH  ACCESS:    1357749  HIT:    1319171  MISS:      38578
LLC WRITEBACK ACCESS:     148933  HIT:     148467  MISS:        466
LLC PREFETCH  REQUESTED:          0  ISSUED:          0
XXX LLC-USEFUL 3728
XXX LLC-USELESS 32436
LLC AVERAGE MISS LATENCY: 163.299 cycles
Major fault: 0 Minor fault: 5655
XXX disp-0 2477444
XXX disp-1 0
XXX disp-2 0
XXX disp-3 306424
XXX disp-4 946725
XXX disp-5 714982
XXX disp-6 1073631
XXX disp-7 701290
XXX disp-8 757755
XXX disp-9 487878
XXX disp-10 317326
XXX disp-11 274647
XXX disp-12 142109
XXX disp-13 144927
XXX disp-14 172139
XXX disp-15 184378
XXX disp-16 231766
XXX disp-17 96360
XXX disp-18 290338
XXX disp-19 165486
XXX disp-20 152872
XXX disp-21 76010
XXX disp-22 20022
XXX disp-23 339188
XXX disp-24 0
XXX disp-25 0
XXX disp-26 0
XXX disp-27 0
XXX disp-28 0
XXX disp-29 0
XXX disp-30 0
XXX disp-31 0
XXX disp-32 0
XXX disp-33 0
XXX disp-34 0
XXX disp-35 0
XXX disp-36 0
XXX disp-37 0
XXX disp-38 0
XXX disp-39 0
XXX disp-40 0
XXX disp-41 0
XXX disp-42 0
XXX disp-43 0
XXX disp-44 0
XXX disp-45 0
XXX disp-46 118828
XXX disp-47 0
XXX disp-48 0
XXX disp-49 0
XXX disp-50 0
XXX disp-51 0
XXX disp-52 0
XXX disp-53 0
XXX disp-54 0
XXX disp-55 0
XXX disp-56 0
XXX disp-57 0
XXX disp-58 0
XXX disp-59 0
XXX disp-60 0
XXX disp-61 0
XXX disp-62 0
XXX disp-63 0
XXX disp-64 0
XXX disp-65 0
XXX diffBits-0 2477444
XXX diffBits-1 0
XXX diffBits-2 78194
XXX diffBits-3 445412
XXX diffBits-4 605747
XXX diffBits-5 625399
XXX diffBits-6 969010
XXX diffBits-7 751130
XXX diffBits-8 654225
XXX diffBits-9 545610
XXX diffBits-10 389637
XXX diffBits-11 411753
XXX diffBits-12 144702
XXX diffBits-13 141759
XXX diffBits-14 148512
XXX diffBits-15 188621
XXX diffBits-16 363916
XXX diffBits-17 47183
XXX diffBits-18 171795
XXX diffBits-19 345171
XXX diffBits-20 177135
XXX diffBits-21 44828
XXX diffBits-22 346514
XXX diffBits-23 0
XXX diffBits-24 0
XXX diffBits-25 0
XXX diffBits-26 0
XXX diffBits-27 0
XXX diffBits-28 0
XXX diffBits-29 0
XXX diffBits-30 0
XXX diffBits-31 0
XXX diffBits-32 0
XXX diffBits-33 0
XXX diffBits-34 0
XXX diffBits-35 0
XXX diffBits-36 0
XXX diffBits-37 0
XXX diffBits-38 0
XXX diffBits-39 0
XXX diffBits-40 0
XXX diffBits-41 0
XXX diffBits-42 0
XXX diffBits-43 0
XXX diffBits-44 0
XXX diffBits-45 118828
XXX diffBits-46 0
XXX diffBits-47 0
XXX diffBits-48 0
XXX diffBits-49 0
XXX diffBits-50 0
XXX diffBits-51 0
XXX diffBits-52 0
XXX diffBits-53 0
XXX diffBits-54 0
XXX diffBits-55 0
XXX diffBits-56 0
XXX diffBits-57 0
XXX diffBits-58 0
XXX diffBits-59 0
XXX diffBits-60 0
XXX diffBits-61 0
XXX diffBits-62 0
XXX diffBits-63 0
XXX diffBits-64 0
XXX diffBits-65 0
CPU 0 L1D next line prefetcher final stats

DRAM Statistics
 CHANNEL 0
 RQ ROW_BUFFER_HIT:       9021  ROW_BUFFER_MISS:      46814
 DBUS_CONGESTED:      24836
 WQ ROW_BUFFER_HIT:       1301  ROW_BUFFER_MISS:      11396  FULL:          0

 AVG_CONGESTED_CYCLE: 5

CPU 0 Branch Prediction Accuracy: 97.0902% MPKI: 5.2366 Average ROB Occupancy at Mispredict: 60.537

XXX total_mispredicts 261830
XXX total_target_mispredicts1 253012
XXX total_target_mispredicts2 2234
XXX total_direction_mispredicts 6584
XXX mispredict_on_btb_hit 197554
XXX NOT_BRANCH: 0
XXX BRANCH_DIRECT_JUMP: 0
XXX BRANCH_INDIRECT: 0
XXX BRANCH_CONDITIONAL: 0
XXX BRANCH_DIRECT_CALL: 0
XXX BRANCH_INDIRECT_CALL: 44699
XXX BRANCH_RETURN: 152855
XXX BRANCH_OTHER: 0
Branch types
NOT_BRANCH: 41001453 82.0029%
BRANCH_DIRECT_JUMP: 541939 1.08388%
BRANCH_INDIRECT: 59716 0.119432%
BRANCH_CONDITIONAL: 5916825 11.8336%
BRANCH_DIRECT_CALL: 1005456 2.01091%
BRANCH_INDIRECT_CALL: 234433 0.468866%
BRANCH_RETURN: 1239860 2.47972%
BRANCH_OTHER: 0 0%

XXX BTB_reads: 3150036
XXX BTB_writes: 57692
XXX PageBTB_reads: 0
XXX PageBTB_writes: 0
XXX PageBTB_readsBeforeWrite: 0
XXX RegionBTB_reads: 0
XXX RegionBTB_writes: 0
XXX RegionBTB_readsBeforeWrite: 0
XXX BTB_4D_Hits 553691
XXX BTB_6D_Hits 796940
XXX BTB_8D_Hits 972839
XXX BTB_12D_Hits 541217
XXX BTB_18D_Hits 700707
XXX BTB_25D_Hits 191541
XXX BTB_46D_Hits 37251
XXX BTB_Ret_Hits 1239502
XXX BTB_4D_Misses 99
XXX BTB_6D_Misses 83
XXX BTB_8D_Misses 352
XXX BTB_12D_Misses 4290
XXX BTB_18D_Misses 1340
XXX BTB_25D_Misses 21004
XXX BTB_46D_Misses 30166
XXX BTB_Ret_Misses 358
XXX Num_unique_branches 5254
total instructions: 0
wc,tif,trb
4,10,45
10,54,70
7,33,47
5,11,33
4,8,27
6,3,33
9,45,44
4,10,24
12,59,91
9,67,92
727,6428,9361
10,40,170
10,54,94
10,74,90
8,9,71
4,4,31
6,16,50
3,2,7
5,10,43
5,10,29
15,124,127
2,0,5
8,18,82
3,3,13
9,35,90
5,9,47
8,42,38
2,1,15
9,54,67
7,22,74
7,25,130
4,9,22
6,3,43
8,44,78
5,16,39
8,32,64
8,27,69
4,9,26
5,9,33
8,19,61
8,42,38
6793,45281,104154
5,9,22
6,18,26
6,9,41
7,11,44
6,18,58
13,76,83
15,76,192
18,104,223
3,2,16
9,43,87
17,139,104
7,28,72
3,2,25
9,48,76
6,7,37
5,6,54
5,15,47
6,5,45
5,8,27
7,36,40
7,13,75
2,0,7
6,16,20
7,12,64
4,8,33
4,0,34
7,23,38
4,7,35
8,32,64
6,9,51
7,4,51
4,3,24
5,7,51
7,16,39
8,18,97
4,9,23
7,35,41
369,2613,6268
5,11,68
3,4,26
18,84,162
7,36,39
719,4716,11143
7,39,69
6,6,44
30,175,439
7,20,49
8,36,71
4,3,32
12,65,79
8,23,91
3,5,21
10,38,64
802,5777,11799
5,15,50
4,2,28
4,5,30
8,21,100
6,8,42
6,17,48
5,10,15
12,79,69
6,27,44
6,8,42
7,22,53
3,2,10
2,5,19
4,2,25
10,35,109
6,21,30
4,6,21
10,30,66
5,9,34
8,19,86
4,12,52
4,4,14
4,12,43
7,28,41
8,23,57
4,5,22
7,15,40
9,33,86
715,3206,14522
4,6,40
12,60,112
615,5300,8172
13,71,118
10,62,62
7,17,38
6,3,33
8,50,30
4,3,35
4,4,26
4,5,23
6,21,39
5,25,44
4,6,18
6,17,33
13,43,117
7,18,43
7,7,69
6,14,30
6,23,27
8,18,99
4,5,26
12,95,102
8,28,52
8,43,62
4,9,9
10,66,64
9,70,77
5,19,52
2,1,13
3,4,37
16,92,108
7,36,76
13,32,128
7,67,54
8,29,51
6,8,56
4,14,32
8,13,91
6,15,45
6,11,25
4,25,69
2,1,10
4,5,41
5,8,27
10,64,60
4,7,33
12,46,119
10,50,60
5,7,60
4,17,32
5,8,71
13,91,94
5,13,28
7,33,42
7,23,32
4,6,29
2,3,13
5,9,34
11,42,113
8,26,54
5,12,44
5,7,50
6,8,42
2,10,34
4,6,45
5,8,23
10,72,58
8,22,74
6,22,33
4,11,33
11,55,133
5,6,33
6,21,15
6,9,45
9,19,70
11,37,115
11,73,62
4,7,31
8,13,105
6,11,50
6,19,45
5,28,36
10,54,56
11,64,65
3,3,25
11,63,128
4,14,37
6,13,43
5,6,35
18,96,267
7,21,34
8,26,54
7,24,69
6,10,40
5,12,40
3,2,18
5,10,21
18,102,227
6,4,42
6,18,53
5,8,36
5,5,20
223,880,4581
8,33,47
9,35,103
5,9,26
7,28,43
412,1863,8304
15,90,99
15,37,124
7,11,69
18,84,104
11,52,97
6,16,28
6,28,32
3,7,48
5,12,45
5,20,48
10,68,42
12,76,90
5,16,11
8,30,88
23,150,177
2,1,10
9,44,73
4,17,47
17,119,118
4,4,40
6,25,71
7,19,54
11,44,65
7,24,56
4,14,39
6,16,39
4,15,33
696,2479,14878
5,6,62
7,14,55
11,47,62
4,6,31
3,7,41
18,77,169
10,38,92
6,8,36
6,19,41
5,10,40
11,59,141
9,20,85
10,64,66
11,56,89
307,1218,6396
6,13,55
10,30,94
3,12,27
4,11,28
5,16,39
10,53,96
6,13,62
5,9,43
7,25,30
15,133,98
5,15,20
11,33,110
8,38,42
9,26,87
12,66,70
5,2,23
8,29,72
5,4,35
5,11,28
4,24,40
5,13,33
27,164,273
7,19,61
8,31,49
12,29,109
9,41,85
7,32,43
5,5,41
47,376,378
3,2,21
5,20,48
4,5,11
5,7,36
10,30,135
5,1,26
7,26,54
4,9,37
5,12,46
6,18,53
8,17,63
5,17,52
5,11,66
4,12,48
1,7,12
6,14,46
8,28,82
6,12,36
8,31,95
3,4,24
5,5,40
5,10,31
10,74,71
5,7,50
442,2913,6733
7,37,38
7,29,82
4,2,30
6,13,55
6,17,34
3,3,29
4,9,46
9,55,50
8,25,85
5,6,25
1025,10120,12259
10,34,68
6,6,45
4,10,8
5,11,20
7,10,61
7,19,56
5,15,56
5,10,29
8,52,64
8,33,88
4,18,30
1,0,0
8,49,31
6,6,54
816,8062,4815
15,89,100
5,3,22
4,6,26
4,12,44
4,0,33
72,253,687
2,1,23
15,70,141
7,19,56
7,21,48
6,15,61
7,10,45
19,159,173
6,13,58
6,20,42
7,23,50
7,29,44
15,101,72
16,129,169
4,6,27
5,4,40
7,17,56
6,17,43
885,7033,7071
3,10,29
6,20,51
0,0,0
5,18,51
4,8,16
540,2858,10536
5,24,44
2,1,15
8,18,62
2,5,29
7,12,61
4,1,31
21,153,166
7,15,40
8,24,120
9,16,103
8,36,44
4,12,41
3,2,28
25,192,195
12,40,118
10,38,114
7,12,43
12,32,150
329,1363,4389
9,44,73
3,8,47
8,58,68
9,37,86
6,11,53
8,25,55
11,42,107
7,20,89
10,40,119
5,6,33
6,17,19
6,15,53
11,50,104
5,19,47
5,7,45
4,11,29
9,29,97
15,89,105
4,0,31
3,10,38
7,12,86
3,19,30
8,47,79
7,14,55
5,12,31
7,37,43
10,32,84
5,16,37
8,7,73
10,39,79
10,25,105
9,41,120
10,59,57
4,7,17
16738,129471,238189
7,24,31
3,20,35
3,10,41
1106,7848,16086
2,1,18
6,8,36
7,34,67
10,32,108
8,43,37
12,57,63
5,7,37
11,40,95
8,26,90
15,88,101
7,26,49
8,33,86
7,18,62
224,985,3177
13,132,40
7,10,100
8,37,89
5,6,45
8,58,57
5,9,55
7,45,35
4,8,27
6,21,39
4,4,42
6,16,60
14,45,143
7,16,59
5,20,51
8,34,92
11,106,90
10,66,70
14,85,113
7,18,37
10,42,82
8,34,46
4,3,33
2,2,17
7,22,49
14,78,99
5,5,34
6,13,23
10,41,89
2,3,22
4,18,30
4373,26158,82731
11,45,88
10,54,92
3,1,34
14,75,137
10,22,133
6,26,59
9,44,77
8,24,56
9,22,91
21,119,202
4,9,26
16,72,116
23,133,192
3,5,6
8,38,73
4,15,45
9,46,75
6,8,58
1030,7888,14743
7,40,89
5,22,49
8,30,70
