Initialize SIGNATURE TABLE
ST_SET: 1
ST_WAY: 256
ST_TAG_BIT: 16
ST_TAG_MASK: ffff

Initialize PATTERN TABLE
PT_SET: 512
PT_WAY: 4
SIG_DELTA_BIT: 7
C_SIG_BIT: 4
C_DELTA_BIT: 4

Initialize PREFETCH FILTER
FILTER_SET: 1024

*** ChampSim Multicore Out-of-Order Simulator ***

Warmup Instructions: 50000000
Simulation Instructions: 50000000
Number of CPUs: 1
LLC sets: 2048
LLC ways: 16
Off-chip DRAM Size: 4096 MB Channels: 1 Width: 64-bit Data Rate: 3200 MT/s

CPU 0 runs /ChampSim-master-BTBX/dpc3_traces/server_031.champsimtrace.xz
Basic BTB sets: 4096 ways: 4 indirect buffer size: 4096 RAS size: 64
CPU 0 L1D next line prefetcher
Heartbeat CPU 0 instructions: 10000003 cycles: 3523593 heartbeat IPC: 2.83801 cumulative IPC: 2.83801 (Simulation time: 0 hr 0 min 18 sec) 
Heartbeat CPU 0 instructions: 20000002 cycles: 7045768 heartbeat IPC: 2.83915 cumulative IPC: 2.83858 (Simulation time: 0 hr 0 min 36 sec) 
Heartbeat CPU 0 instructions: 30000002 cycles: 10568191 heartbeat IPC: 2.83895 cumulative IPC: 2.83871 (Simulation time: 0 hr 0 min 54 sec) 
Heartbeat CPU 0 instructions: 40000003 cycles: 14085881 heartbeat IPC: 2.84277 cumulative IPC: 2.83972 (Simulation time: 0 hr 1 min 13 sec) 
Heartbeat CPU 0 instructions: 50000000 cycles: 17606805 heartbeat IPC: 2.84016 cumulative IPC: 2.83981 (Simulation time: 0 hr 1 min 31 sec) 

Warmup complete CPU 0 instructions: 50000004 cycles: 17606806 (Simulation time: 0 hr 1 min 31 sec) 

Heartbeat CPU 0 instructions: 60000001 cycles: 31050079 heartbeat IPC: 0.743867 cumulative IPC: 0.743866 (Simulation time: 0 hr 1 min 48 sec) 
Heartbeat CPU 0 instructions: 70000002 cycles: 44521095 heartbeat IPC: 0.742335 cumulative IPC: 0.7431 (Simulation time: 0 hr 2 min 6 sec) 
*** Reached end of trace for Core: 0 Repeating trace: /ChampSim-master-BTBX/dpc3_traces/server_031.champsimtrace.xz
Heartbeat CPU 0 instructions: 80000000 cycles: 57823598 heartbeat IPC: 0.751738 cumulative IPC: 0.745957 (Simulation time: 0 hr 2 min 24 sec) 
Heartbeat CPU 0 instructions: 90000000 cycles: 71215929 heartbeat IPC: 0.746696 cumulative IPC: 0.746142 (Simulation time: 0 hr 2 min 41 sec) 
Heartbeat CPU 0 instructions: 100000000 cycles: 84555117 heartbeat IPC: 0.749671 cumulative IPC: 0.746845 (Simulation time: 0 hr 2 min 59 sec) 
Finished CPU 0 instructions: 50000000 cycles: 66948324 cumulative IPC: 0.746845 (Simulation time: 0 hr 2 min 59 sec) 

ChampSim completed all CPUs

Region of Interest Statistics

CPU 0
XXX cumulative-IPC 0.746845
XXX instructions 50000000
XXX cycles 66948324
L1D TOTAL     ACCESS:   22031319  HIT:   20122693  MISS:    1908626
L1D LOAD      ACCESS:    7952584  HIT:    7090918  MISS:     861666
L1D RFO       ACCESS:    6436851  HIT:    6146653  MISS:     290198
L1D PREFETCH  ACCESS:    7641884  HIT:    6885122  MISS:     756762
L1D WRITEBACK ACCESS:          0  HIT:          0  MISS:          0
L1D PREFETCH  REQUESTED:    8028596  ISSUED:    7947297
XXX L1D-USEFUL 187820
XXX L1D-USELESS 568943
L1D AVERAGE MISS LATENCY: 24.1826 cycles
L1I TOTAL     ACCESS:   13761587  HIT:   10097661  MISS:    3663926
L1I LOAD      ACCESS:    9223997  HIT:    7209138  MISS:    2014859
L1I RFO       ACCESS:          0  HIT:          0  MISS:          0
L1I PREFETCH  ACCESS:    4537590  HIT:    2888523  MISS:    1649067
L1I WRITEBACK ACCESS:          0  HIT:          0  MISS:          0
L1I PREFETCH  REQUESTED:    7619760  ISSUED:    7619760
XXX L1I-USEFUL 1046798
XXX L1I-USELESS 602275
L1I AVERAGE MISS LATENCY: 13.2656 cycles
L2C TOTAL     ACCESS:    7905741  HIT:    6828401  MISS:    1077340
L2C LOAD      ACCESS:    1787386  HIT:    1480233  MISS:     307153
L2C RFO       ACCESS:     288306  HIT:     211626  MISS:      76680
L2C PREFETCH  ACCESS:    5213130  HIT:    4523966  MISS:     689164
L2C WRITEBACK ACCESS:     616919  HIT:     612576  MISS:       4343
L2C PREFETCH  REQUESTED:    5402657  ISSUED:    5401561
XXX L2C-USEFUL 38437
XXX L2C-USELESS 649713
L2C AVERAGE MISS LATENCY: 39.2176 cycles
LLC TOTAL     ACCESS:    2385104  HIT:    2310671  MISS:      74433
LLC LOAD      ACCESS:     307097  HIT:     288833  MISS:      18264
LLC RFO       ACCESS:      76679  HIT:      72498  MISS:       4181
LLC PREFETCH  ACCESS:    1848915  HIT:    1797367  MISS:      51548
LLC WRITEBACK ACCESS:     152413  HIT:     151973  MISS:        440
LLC PREFETCH  REQUESTED:          0  ISSUED:          0
XXX LLC-USEFUL 2419
XXX LLC-USELESS 48776
LLC AVERAGE MISS LATENCY: 154.169 cycles
Major fault: 0 Minor fault: 6049
XXX disp-0 2417373
XXX disp-1 0
XXX disp-2 1740
XXX disp-3 388383
XXX disp-4 1315467
XXX disp-5 1129206
XXX disp-6 1115751
XXX disp-7 740658
XXX disp-8 668543
XXX disp-9 381657
XXX disp-10 271951
XXX disp-11 251759
XXX disp-12 120912
XXX disp-13 157566
XXX disp-14 132933
XXX disp-15 163905
XXX disp-16 87048
XXX disp-17 46155
XXX disp-18 163786
XXX disp-19 101246
XXX disp-20 127874
XXX disp-21 307581
XXX disp-22 174875
XXX disp-23 434849
XXX disp-24 84370
XXX disp-25 0
XXX disp-26 0
XXX disp-27 0
XXX disp-28 0
XXX disp-29 0
XXX disp-30 0
XXX disp-31 0
XXX disp-32 0
XXX disp-33 0
XXX disp-34 0
XXX disp-35 0
XXX disp-36 0
XXX disp-37 0
XXX disp-38 0
XXX disp-39 0
XXX disp-40 0
XXX disp-41 0
XXX disp-42 0
XXX disp-43 0
XXX disp-44 0
XXX disp-45 0
XXX disp-46 244815
XXX disp-47 0
XXX disp-48 0
XXX disp-49 0
XXX disp-50 0
XXX disp-51 0
XXX disp-52 0
XXX disp-53 0
XXX disp-54 0
XXX disp-55 0
XXX disp-56 0
XXX disp-57 0
XXX disp-58 0
XXX disp-59 0
XXX disp-60 0
XXX disp-61 0
XXX disp-62 0
XXX disp-63 0
XXX disp-64 0
XXX disp-65 0
XXX diffBits-0 2417373
XXX diffBits-1 1661
XXX diffBits-2 162408
XXX diffBits-3 635520
XXX diffBits-4 933064
XXX diffBits-5 949261
XXX diffBits-6 890635
XXX diffBits-7 684407
XXX diffBits-8 498810
XXX diffBits-9 584704
XXX diffBits-10 449317
XXX diffBits-11 275196
XXX diffBits-12 211983
XXX diffBits-13 173018
XXX diffBits-14 85612
XXX diffBits-15 125147
XXX diffBits-16 144076
XXX diffBits-17 112639
XXX diffBits-18 71702
XXX diffBits-19 160746
XXX diffBits-20 255604
XXX diffBits-21 274698
XXX diffBits-22 493061
XXX diffBits-23 0
XXX diffBits-24 0
XXX diffBits-25 194946
XXX diffBits-26 0
XXX diffBits-27 0
XXX diffBits-28 0
XXX diffBits-29 0
XXX diffBits-30 0
XXX diffBits-31 0
XXX diffBits-32 0
XXX diffBits-33 0
XXX diffBits-34 0
XXX diffBits-35 0
XXX diffBits-36 0
XXX diffBits-37 0
XXX diffBits-38 0
XXX diffBits-39 0
XXX diffBits-40 0
XXX diffBits-41 0
XXX diffBits-42 0
XXX diffBits-43 0
XXX diffBits-44 0
XXX diffBits-45 244815
XXX diffBits-46 0
XXX diffBits-47 0
XXX diffBits-48 0
XXX diffBits-49 0
XXX diffBits-50 0
XXX diffBits-51 0
XXX diffBits-52 0
XXX diffBits-53 0
XXX diffBits-54 0
XXX diffBits-55 0
XXX diffBits-56 0
XXX diffBits-57 0
XXX diffBits-58 0
XXX diffBits-59 0
XXX diffBits-60 0
XXX diffBits-61 0
XXX diffBits-62 0
XXX diffBits-63 0
XXX diffBits-64 0
XXX diffBits-65 0
CPU 0 L1D next line prefetcher final stats

DRAM Statistics
 CHANNEL 0
 RQ ROW_BUFFER_HIT:      21158  ROW_BUFFER_MISS:      52829
 DBUS_CONGESTED:      29366
 WQ ROW_BUFFER_HIT:        666  ROW_BUFFER_MISS:       5002  FULL:          0

 AVG_CONGESTED_CYCLE: 4

CPU 0 Branch Prediction Accuracy: 85.8702% MPKI: 26.4063 Average ROB Occupancy at Mispredict: 53.8138

XXX total_mispredicts 1320317
XXX total_target_mispredicts1 1027150
XXX total_target_mispredicts2 267783
XXX total_direction_mispredicts 25384
XXX mispredict_on_btb_hit 240259
XXX NOT_BRANCH: 0
XXX BRANCH_DIRECT_JUMP: 0
XXX BRANCH_INDIRECT: 17783
XXX BRANCH_CONDITIONAL: 0
XXX BRANCH_DIRECT_CALL: 0
XXX BRANCH_INDIRECT_CALL: 11863
XXX BRANCH_RETURN: 210613
XXX BRANCH_OTHER: 0
Branch types
NOT_BRANCH: 40655495 81.311%
BRANCH_DIRECT_JUMP: 546482 1.09296%
BRANCH_INDIRECT: 172433 0.344866%
BRANCH_CONDITIONAL: 6207552 12.4151%
BRANCH_DIRECT_CALL: 1018496 2.03699%
BRANCH_INDIRECT_CALL: 190373 0.380746%
BRANCH_RETURN: 1208854 2.41771%
BRANCH_OTHER: 0 0%

XXX BTB_reads: 15865020
XXX BTB_writes: 1054674
XXX PageBTB_reads: 0
XXX PageBTB_writes: 0
XXX PageBTB_readsBeforeWrite: 0
XXX RegionBTB_reads: 0
XXX RegionBTB_writes: 0
XXX RegionBTB_readsBeforeWrite: 0
XXX BTB_4D_Hits 830039
XXX BTB_6D_Hits 838487
XXX BTB_8D_Hits 725721
XXX BTB_12D_Hits 382505
XXX BTB_18D_Hits 253764
XXX BTB_25D_Hits 196534
XXX BTB_46D_Hits 72212
XXX BTB_Ret_Hits 1157888
XXX BTB_4D_Misses 32534
XXX BTB_6D_Misses 24890
XXX BTB_8D_Misses 98054
XXX BTB_12D_Misses 116880
XXX BTB_18D_Misses 91582
XXX BTB_25D_Misses 232305
XXX BTB_46D_Misses 407463
XXX BTB_Ret_Misses 50966
XXX Num_unique_branches 9745
total instructions: 0
wc,tif,trb
6375,30174,125669
217,1549,3146
191,1458,3093
406,3573,4515
15,41,178
26,225,133
3565,21633,45698
6567,23623,119444
6144,64790,59020
6605,50944,70575
4405,44461,45570
7206,32623,116773
28,174,356
213,1808,3136
167,648,3400
19,38,205
4736,44979,58897
241,2019,3024
3626,12891,76702
12,77,67
3494,23812,58696
12,51,117
3173,20580,58607
3330,11672,71438
4991,20043,101033
4069,39937,49950
1807,13317,16969
3241,13076,67775
3179,17412,61810
6,17,74
8414,31722,152588
258,2563,2880
8565,57147,80112
241,831,5022
3414,15578,68953
459,2335,6187
3920,17119,80656
2523,8567,54376
3218,12911,66784
873,2112,19647
207,1440,3615
10,50,80
1270,12240,19284
244,1198,4782
204,752,3792
712,5076,5131
539,2896,5443
4836,14771,106003
3173,4782,74402
219,654,1560
10,46,120
9214,51188,118014
9887,62338,117947
150,378,3258
47,330,592
5811,30247,108522
3259,20394,60725
10,21,81
5164,38395,70154
174,414,3762
6,10,42
12595,40039,157111
3564,28788,47190
193,431,4135
15,78,125
10180,54687,96961
2940,11545,61827
183,1044,3438
6181,35007,88008
382,2080,4558
244,1369,3897
4753,42724,61703
3325,13144,68912
1717,11866,25028
2461,8608,52737
485,4895,3869
4002,15560,75866
2744,12923,54587
3473,24841,59112
3959,24181,50652
3175,31822,46632
311,2201,3934
4786,17494,101179
16,136,74
7812,48596,123222
245,2078,2259
6,3,68
14239,56020,190221
13010,81468,105573
20,173,159
8260,67579,66546
9,11,78
3185,12752,66607
9,22,103
3850,19633,72168
6617,54642,87271
7905,54321,94914
721,4663,3805
8748,59244,130231
744,3468,7759
6,3,61
5024,36427,73677
3153,4730,73981
12372,100194,66114
6,15,56
9,47,44
11040,85262,101380
3425,30999,52218
3164,22096,56879
2640,24052,38440
4738,26263,92108
8317,63373,119097
165,718,3271
791,4682,10083
20,188,98
25,88,153
172,909,2400
9565,79477,82823
164,1183,2803
13792,86186,118012
593,4469,6529
3095,32533,41453
3174,14257,64875
338,3055,4269
10,34,90
252,2560,2808
1720,12108,25649
407,2434,6706
5142,28126,100277
37,166,305
561,5314,3835
9425,92287,47028
6679,49949,53250
3008,8780,66300
5,3,22
360,1329,7551
17,84,223
252,1222,2618
634,5909,6835
257,1895,1131
822,3612,12316
878,7792,13751
17,105,150
3332,6702,76454
75,758,426
5061,41836,66853
8,48,32
190,932,3484
784,5805,6506
3247,18269,62786
9603,56717,131274
12423,82782,131285
4,12,27
439,3821,4204
164,639,3341
3,5,27
2328,13759,39525
27,219,264
2827,14668,54747
205,2111,2538
2056,20461,23846
8,14,66
244,1243,1984
10630,42098,132804
349,1720,5801
206,1196,3576
293,1489,4982
9,20,65
250,3079,2303
274,1359,5010
323,3028,2789
3445,27740,55294
3900,29568,45261
8,51,75
164,643,3368
769,6097,4950
3169,7927,71178
165,1171,2770
4,6,28
6626,41464,100076
189,2502,1639
249,2357,3771
2,1,6
14,58,148
1536,8092,14167
269,2792,2715
738,4401,4786
605,4067,7377
6328,26908,112242
7954,45893,133656
14,24,279
14440,79343,137429
10966,76911,99504
12,22,134
10,38,92
8,40,40
515,4639,3226
10,42,101
9862,92848,53120
109,841,1650
12,43,131
3193,18054,47621
14,77,95
17,214,91
163,943,3033
260,2755,2720
14,27,119
13,69,110
119,1656,863
12928,105783,78316
7,15,46
18,83,231
362,1173,6754
644,4111,4462
3331,9998,73163
1096,8203,11691
8008,68843,49907
14,35,207
7,9,62
163,485,3524
401,2227,4158
5,11,18
11,30,81
4231,16869,79455
9,27,96
199,1906,2673
249,2398,2973
6335,26912,112331
2345,5873,52615
1568,12814,25247
164,959,3053
6,20,24
9177,81426,83913
3679,13238,74695
1309,5532,25789
3401,12470,69741
3332,12303,69905
7460,50257,85797
13,114,91
4989,10204,114409
15,84,171
6,7,66
179,747,3506
247,2827,2522
3382,36726,41148
6452,45783,72067
8666,48065,105639
19,88,255
4955,53128,52283
3880,26933,69913
179,529,2702
425,3498,3803
207,1417,3026
11110,52660,130536
14,52,176
3171,12524,66631
9644,52800,116076
5282,53503,58457
6,12,57
3170,4759,74371
3180,12722,66616
263,931,5518
103,473,1896
311,2437,3870
4427,27622,36189
3249,14252,66853
5,14,37
5744,16529,113721
3650,39295,42497
210,2060,1425
6,20,31
3201,11960,67813
306,2426,3116
11,42,111
3535,18035,65920
47,377,578
3185,11135,68344
760,4235,6383
330,1518,2086
6385,38222,111348
4590,21274,76266
13,92,69
61,611,500
3169,6344,72802
11,42,167
18,190,102
12495,55211,144582
3407,23356,58149
14055,46339,163304
900,6072,4548
3561,23949,60510
43,387,264
13,73,78
6653,30863,89432
622,3509,6967
8,38,42
3091,29866,36417
25,146,273
181,641,3650
100,664,1024
11,58,51
3174,17402,61754
35,390,301
585,3710,6383
2632,7940,55701
7461,65444,71973
12,126,54
199,792,3812
11,69,56
30,178,286
404,2845,3999
75,708,536
3245,8316,72730
890,6859,8967
536,5690,6925
22,119,283
6271,29799,108558
6387,50015,63058
6363,33986,105925
3327,16512,65561
8385,79675,76746
236,1093,4321
15414,110989,80520
16266,80903,125813
3247,6642,74451
4,13,38
887,8734,4824
323,1292,6467
2999,11979,62898
21,142,195
15125,100126,145875
5926,45037,83997
5869,35315,95032
3324,29104,52496
11485,90909,82938
3797,11468,78211
5610,43519,82347
410,1649,7571
321,3422,2385
4351,40898,56835
430,1013,8393
11159,61163,153562
11880,79759,86605
446,2060,5638
3384,13887,70291
3587,12490,73413
4683,27019,67653
4843,20851,100044
3691,25918,63045
4092,21025,81105
3431,38701,42048
6482,37887,102989
7,18,53
439,3494,5173
14930,76282,126642
10749,32851,151587
7513,69459,65836
4005,45100,38782
3338,12266,70048
323,2389,1789
3398,27323,53624
320,1433,5511
25,190,269
541,2459,6528
6652,32193,111607
8870,70088,78010
213,625,4555
54,332,944
3726,7632,79136
3777,24990,61056
3946,18686,78598
343,2934,4519
518,3513,5268
9,57,80
806,6672,6426
29,268,187
2944,16000,57010
543,4040,6155
5908,52202,75732
3403,19448,62011
11126,69538,112936
597,4285,7632
7125,34862,116315
7,15,60
877,5254,8238
10,43,53
13,37,182
5436,31204,84374
6493,30392,112801
3260,8913,72371
5167,13699,103712
10488,56375,150868
363,2285,3887
18551,102076,148422
3621,13673,71088
9825,24251,152558
7715,71988,51661
18847,108667,98870
3173,17424,61769
3264,30297,49043
9664,72643,96335
15900,72053,225497
8728,63424,91490
69,619,862
3189,15099,63476
5091,19130,104585
28,129,253
3782,14694,76634
18672,97462,153689
153,1322,1934
413,3622,4082
3185,29834,48729
8560,63079,121831
13973,74257,147992
16123,73048,185161
642,2673,6925
363,3703,2582
243,1811,3420
27,206,236
3707,12755,75853
6,11,33
704,4043,3795
541,4960,5774
11327,75848,107999
316,1641,5227
15,145,110
357,2012,5605
16,47,187
9984,59490,95992
6,5,55
8,17,63
4656,54600,46076
407,3461,4158
164,1503,1693
3797,31057,55989
6,17,52
206,1266,3368
3407,10932,73114
3935,28761,60858
6495,54530,87421
8043,56893,90890
9939,70042,84046
4756,48268,54890
777,2813,9101
18550,89247,175266
6807,30346,137845
4653,27161,69138
5736,28063,102504
22,105,211
11623,55572,128490
10163,71281,121830
3704,27220,61386
4910,13722,108896
1172,8152,19972
171,288,3821
4868,55299,42814
2275,5699,49308
9342,55554,102130
8195,59313,94192
19327,100482,206867
10072,41676,138082
11,65,84
4747,31592,72621
5982,13503,122731
23382,129970,182265
6,20,16
3382,7062,77398
722,3525,9089
9,19,68
414,1842,3497
414,2788,1654
3168,12662,66418
9889,60758,119381
560,3112,9311
254,1527,2383
5108,34988,74880
3171,9527,69636
17326,107289,166019
11480,89430,76481
432,1812,8834
8027,43117,138226
14,68,116
3476,31304,52319
19465,119847,105855
6431,32702,90860
331,1181,5155
536,5738,2618
4384,15598,93873
7,15,95
6480,44951,95113
9585,46666,130603
14,114,88
4667,29197,73376
9681,52067,125140
3331,16014,67182
343,3280,4180
3538,21048,55273
171,585,3610
3372,5454,78706
425,3687,5344
172,443,3640
265,1536,2245
4251,32785,66121
266,2608,3804
14,87,111
55,207,1030
3325,21404,60467
255,1785,4390
6772,49479,93736
3982,31083,63441
13773,51547,156188
3415,30053,54048
