Initialize SIGNATURE TABLE
ST_SET: 1
ST_WAY: 256
ST_TAG_BIT: 16
ST_TAG_MASK: ffff

Initialize PATTERN TABLE
PT_SET: 512
PT_WAY: 4
SIG_DELTA_BIT: 7
C_SIG_BIT: 4
C_DELTA_BIT: 4

Initialize PREFETCH FILTER
FILTER_SET: 1024

*** ChampSim Multicore Out-of-Order Simulator ***

Warmup Instructions: 50000000
Simulation Instructions: 50000000
Number of CPUs: 1
LLC sets: 2048
LLC ways: 16
Off-chip DRAM Size: 4096 MB Channels: 1 Width: 64-bit Data Rate: 3200 MT/s

CPU 0 runs /ChampSim-master-BTBX/dpc3_traces/server_003.champsimtrace.xz
Basic BTB sets: 4096 ways: 4 indirect buffer size: 4096 RAS size: 64
CPU 0 L1D next line prefetcher
Heartbeat CPU 0 instructions: 10000002 cycles: 3217380 heartbeat IPC: 3.10812 cumulative IPC: 3.10812 (Simulation time: 0 hr 0 min 16 sec) 
Heartbeat CPU 0 instructions: 20000000 cycles: 6531806 heartbeat IPC: 3.01711 cumulative IPC: 3.06194 (Simulation time: 0 hr 0 min 33 sec) 
Heartbeat CPU 0 instructions: 30000000 cycles: 9735947 heartbeat IPC: 3.12096 cumulative IPC: 3.08136 (Simulation time: 0 hr 0 min 50 sec) 
Heartbeat CPU 0 instructions: 40000001 cycles: 13148887 heartbeat IPC: 2.93003 cumulative IPC: 3.04208 (Simulation time: 0 hr 1 min 8 sec) 
Heartbeat CPU 0 instructions: 50000002 cycles: 16867375 heartbeat IPC: 2.68927 cumulative IPC: 2.9643 (Simulation time: 0 hr 1 min 26 sec) 

Warmup complete CPU 0 instructions: 50000002 cycles: 16867375 (Simulation time: 0 hr 1 min 26 sec) 

Heartbeat CPU 0 instructions: 60000000 cycles: 29590536 heartbeat IPC: 0.785968 cumulative IPC: 0.785968 (Simulation time: 0 hr 1 min 43 sec) 
Heartbeat CPU 0 instructions: 70000003 cycles: 41610843 heartbeat IPC: 0.831926 cumulative IPC: 0.808294 (Simulation time: 0 hr 2 min 0 sec) 
Heartbeat CPU 0 instructions: 80000000 cycles: 55490652 heartbeat IPC: 0.720471 cumulative IPC: 0.776734 (Simulation time: 0 hr 2 min 18 sec) 
Heartbeat CPU 0 instructions: 90000000 cycles: 69676356 heartbeat IPC: 0.704935 cumulative IPC: 0.757447 (Simulation time: 0 hr 2 min 36 sec) 
Heartbeat CPU 0 instructions: 100000001 cycles: 84469138 heartbeat IPC: 0.676005 cumulative IPC: 0.739626 (Simulation time: 0 hr 2 min 53 sec) 
Finished CPU 0 instructions: 50000003 cycles: 67601764 cumulative IPC: 0.739626 (Simulation time: 0 hr 2 min 53 sec) 

ChampSim completed all CPUs

Region of Interest Statistics

CPU 0
XXX cumulative-IPC 0.739626
XXX instructions 50000003
XXX cycles 67601764
L1D TOTAL     ACCESS:   20675408  HIT:   19533405  MISS:    1142003
L1D LOAD      ACCESS:    8147442  HIT:    7625865  MISS:     521577
L1D RFO       ACCESS:    4617276  HIT:    4500531  MISS:     116745
L1D PREFETCH  ACCESS:    7910690  HIT:    7407009  MISS:     503681
L1D WRITEBACK ACCESS:          0  HIT:          0  MISS:          0
L1D PREFETCH  REQUESTED:    8206267  ISSUED:    8117724
XXX L1D-USEFUL 164930
XXX L1D-USELESS 338711
L1D AVERAGE MISS LATENCY: 52.1684 cycles
L1I TOTAL     ACCESS:   13524119  HIT:   12463743  MISS:    1060376
L1I LOAD      ACCESS:    9310411  HIT:    8685786  MISS:     624625
L1I RFO       ACCESS:          0  HIT:          0  MISS:          0
L1I PREFETCH  ACCESS:    4213708  HIT:    3777957  MISS:     435751
L1I WRITEBACK ACCESS:          0  HIT:          0  MISS:          0
L1I PREFETCH  REQUESTED:    5294024  ISSUED:    5294024
XXX L1I-USEFUL 279170
XXX L1I-USELESS 156565
L1I AVERAGE MISS LATENCY: 20.9253 cycles
L2C TOTAL     ACCESS:    3070950  HIT:    2078013  MISS:     992937
L2C LOAD      ACCESS:     777794  HIT:     523644  MISS:     254150
L2C RFO       ACCESS:     114130  HIT:      41023  MISS:      73107
L2C PREFETCH  ACCESS:    1894631  HIT:    1229884  MISS:     664747
L2C WRITEBACK ACCESS:     284395  HIT:     283462  MISS:        933
L2C PREFETCH  REQUESTED:    2107497  ISSUED:    2107438
XXX L2C-USEFUL 64228
XXX L2C-USELESS 598050
L2C AVERAGE MISS LATENCY: 72.9675 cycles
LLC TOTAL     ACCESS:    1754665  HIT:    1396570  MISS:     358095
LLC LOAD      ACCESS:     253961  HIT:     196786  MISS:      57175
LLC RFO       ACCESS:      73107  HIT:      32248  MISS:      40859
LLC PREFETCH  ACCESS:    1263081  HIT:    1004159  MISS:     258922
LLC WRITEBACK ACCESS:     164516  HIT:     163377  MISS:       1139
LLC PREFETCH  REQUESTED:          0  ISSUED:          0
XXX LLC-USEFUL 33753
XXX LLC-USELESS 213408
LLC AVERAGE MISS LATENCY: 173.391 cycles
Major fault: 0 Minor fault: 7774
XXX disp-0 2059667
XXX disp-1 0
XXX disp-2 2439
XXX disp-3 779776
XXX disp-4 967507
XXX disp-5 909629
XXX disp-6 971915
XXX disp-7 833408
XXX disp-8 581820
XXX disp-9 435143
XXX disp-10 217454
XXX disp-11 118091
XXX disp-12 89627
XXX disp-13 79117
XXX disp-14 124906
XXX disp-15 106714
XXX disp-16 60306
XXX disp-17 51871
XXX disp-18 118759
XXX disp-19 149159
XXX disp-20 234495
XXX disp-21 349441
XXX disp-22 416955
XXX disp-23 86062
XXX disp-24 109867
XXX disp-25 49842
XXX disp-26 13737
XXX disp-27 281
XXX disp-28 14360
XXX disp-29 0
XXX disp-30 0
XXX disp-31 0
XXX disp-32 0
XXX disp-33 0
XXX disp-34 0
XXX disp-35 0
XXX disp-36 0
XXX disp-37 0
XXX disp-38 0
XXX disp-39 0
XXX disp-40 0
XXX disp-41 0
XXX disp-42 0
XXX disp-43 0
XXX disp-44 0
XXX disp-45 0
XXX disp-46 0
XXX disp-47 0
XXX disp-48 0
XXX disp-49 0
XXX disp-50 0
XXX disp-51 0
XXX disp-52 0
XXX disp-53 0
XXX disp-54 0
XXX disp-55 0
XXX disp-56 0
XXX disp-57 0
XXX disp-58 0
XXX disp-59 0
XXX disp-60 0
XXX disp-61 0
XXX disp-62 0
XXX disp-63 24
XXX disp-64 0
XXX disp-65 0
XXX diffBits-0 2059667
XXX diffBits-1 1759
XXX diffBits-2 278787
XXX diffBits-3 544538
XXX diffBits-4 786382
XXX diffBits-5 824451
XXX diffBits-6 832623
XXX diffBits-7 795993
XXX diffBits-8 596669
XXX diffBits-9 589771
XXX diffBits-10 208391
XXX diffBits-11 126403
XXX diffBits-12 200706
XXX diffBits-13 135709
XXX diffBits-14 89526
XXX diffBits-15 72713
XXX diffBits-16 187938
XXX diffBits-17 51629
XXX diffBits-18 99919
XXX diffBits-19 214569
XXX diffBits-20 205648
XXX diffBits-21 138231
XXX diffBits-22 129166
XXX diffBits-23 682940
XXX diffBits-24 0
XXX diffBits-25 63579
XXX diffBits-26 0
XXX diffBits-27 14641
XXX diffBits-28 0
XXX diffBits-29 0
XXX diffBits-30 0
XXX diffBits-31 0
XXX diffBits-32 0
XXX diffBits-33 0
XXX diffBits-34 0
XXX diffBits-35 0
XXX diffBits-36 0
XXX diffBits-37 0
XXX diffBits-38 0
XXX diffBits-39 0
XXX diffBits-40 0
XXX diffBits-41 0
XXX diffBits-42 0
XXX diffBits-43 0
XXX diffBits-44 0
XXX diffBits-45 0
XXX diffBits-46 0
XXX diffBits-47 0
XXX diffBits-48 0
XXX diffBits-49 0
XXX diffBits-50 0
XXX diffBits-51 0
XXX diffBits-52 0
XXX diffBits-53 0
XXX diffBits-54 0
XXX diffBits-55 0
XXX diffBits-56 0
XXX diffBits-57 0
XXX diffBits-58 0
XXX diffBits-59 0
XXX diffBits-60 0
XXX diffBits-61 0
XXX diffBits-62 24
XXX diffBits-63 0
XXX diffBits-64 0
XXX diffBits-65 0
CPU 0 L1D next line prefetcher final stats

DRAM Statistics
 CHANNEL 0
 RQ ROW_BUFFER_HIT:      78542  ROW_BUFFER_MISS:     278396
 DBUS_CONGESTED:     158195
 WQ ROW_BUFFER_HIT:      23175  ROW_BUFFER_MISS:      79483  FULL:          0

 AVG_CONGESTED_CYCLE: 5

CPU 0 Branch Prediction Accuracy: 90.8676% MPKI: 18.0744 Average ROB Occupancy at Mispredict: 55.9486

XXX total_mispredicts 903722
XXX total_target_mispredicts1 503062
XXX total_target_mispredicts2 147438
XXX total_direction_mispredicts 253222
XXX mispredict_on_btb_hit 311160
XXX NOT_BRANCH: 0
XXX BRANCH_DIRECT_JUMP: 5
XXX BRANCH_INDIRECT: 21428
XXX BRANCH_CONDITIONAL: 0
XXX BRANCH_DIRECT_CALL: 7
XXX BRANCH_INDIRECT_CALL: 137826
XXX BRANCH_RETURN: 151894
XXX BRANCH_OTHER: 0
Branch types
NOT_BRANCH: 40103830 80.2077%
BRANCH_DIRECT_JUMP: 497927 0.995854%
BRANCH_INDIRECT: 130586 0.261172%
BRANCH_CONDITIONAL: 7218977 14.438%
BRANCH_DIRECT_CALL: 625806 1.25161%
BRANCH_INDIRECT_CALL: 389785 0.77957%
BRANCH_RETURN: 1032743 2.06549%
BRANCH_OTHER: 0 0%

XXX BTB_reads: 12105466
XXX BTB_writes: 339321
XXX PageBTB_reads: 0
XXX PageBTB_writes: 0
XXX PageBTB_readsBeforeWrite: 0
XXX RegionBTB_reads: 0
XXX RegionBTB_writes: 0
XXX RegionBTB_readsBeforeWrite: 0
XXX BTB_4D_Hits 748208
XXX BTB_6D_Hits 811791
XXX BTB_8D_Hits 983815
XXX BTB_12D_Hits 319409
XXX BTB_18D_Hits 393867
XXX BTB_25D_Hits 462459
XXX BTB_46D_Hits 5409
XXX BTB_Ret_Hits 1001520
XXX BTB_4D_Misses 60822
XXX BTB_6D_Misses 18677
XXX BTB_8D_Misses 41476
XXX BTB_12D_Misses 36486
XXX BTB_18D_Misses 23157
XXX BTB_25D_Misses 54969
XXX BTB_46D_Misses 72511
XXX BTB_Ret_Misses 31223
XXX Num_unique_branches 46193
total instructions: 0
wc,tif,trb
873,4415,12673
1902,10587,17192
1324,9335,10947
1344,7152,12550
667,3631,9233
756,4621,6362
2416,12594,21253
612,3689,4856
821,4731,8595
1373,8031,9740
1225,6960,11107
1123,5519,14055
2118,15727,12274
760,5321,7615
1217,5960,13841
621,3691,5506
1891,10560,14862
581,3904,4880
1275,6974,11974
1359,6831,13745
637,4038,4632
1292,5762,16184
1448,8935,10004
718,4596,6313
1294,7352,9270
636,3249,7053
1528,8776,14198
1427,8210,11842
1227,7597,9977
1258,6837,11789
1499,9413,15929
923,5887,7811
1714,9769,18751
1517,8518,18052
558,3225,7356
1342,9979,7344
1387,7686,13307
1213,7848,9296
547,2852,7336
2144,10840,17308
1404,8766,10910
374,2436,4791
1051,7407,6544
602,3249,6470
1933,8146,17912
1904,10078,19349
952,5243,8342
1623,9681,15047
1356,8780,8570
1742,10169,11967
1025,6262,7313
2008,11653,19257
821,4210,11196
930,4428,10789
418,2073,5953
1746,9419,17353
1434,7435,12757
749,3528,9127
577,3947,5490
1828,10579,15631
1757,7559,18722
1973,11781,16012
1594,9012,16125
1929,9310,22364
1131,7700,9896
1505,12042,9365
1421,7454,15454
1218,7014,8430
546,2422,7774
1595,8533,14971
1506,8888,9655
952,6225,7341
1136,6199,11505
1627,11938,6968
1521,6630,15015
645,3391,6413
445,2904,4103
535,2464,7392
1589,8434,14412
1346,6577,14312
1234,8299,10635
1340,7138,11103
949,4989,10678
1975,10569,17599
2766,15591,20565
585,3701,8332
1165,5872,16987
874,5170,8655
1261,6903,12367
1802,8174,17954
1113,5464,11925
1040,4688,12449
1914,11813,13785
1621,8849,12930
1810,11396,17384
1254,8373,10758
1215,5684,16848
1279,8101,9203
1751,10460,13785
673,3014,10840
2179,12140,15796
1376,6582,13145
987,5136,9567
1389,7960,12129
1874,9711,13999
959,4557,11669
1274,7558,11476
548,2773,6778
547,2627,8007
1311,7373,10425
892,4167,10346
1211,7930,8544
1094,6784,10546
2159,10815,21321
1190,5691,15224
1464,8281,14388
1019,5365,11425
1833,11178,14403
1781,9756,14895
915,4275,10037
951,6896,7433
1757,10897,12848
1203,6262,15637
1909,12493,16728
1844,9918,21522
1779,9815,15865
1106,5953,12897
1900,10406,21061
1776,10851,13406
1649,11263,11147
1126,5552,15327
1550,7531,14972
2023,10982,18793
1444,7048,11033
931,5563,9468
2035,13421,15221
1204,9829,7241
892,4551,9597
1186,6422,13656
1373,6090,13362
485,2748,5791
793,4656,6718
1453,7005,14806
989,4842,12383
1250,7890,7099
1513,8737,12245
1084,6778,9683
1357,7167,11553
1585,9135,12359
1876,12615,15037
694,3188,8855
831,3589,10294
1046,4922,11844
1655,11559,9593
1355,7596,16002
2463,11988,17792
1514,7592,17526
852,4949,9078
2222,10814,23833
936,4770,10116
1740,11260,11673
1168,6051,13555
1963,11582,14002
2043,13104,15251
2319,12198,18541
301,1495,4509
1721,11414,14961
2013,7840,18860
1208,8461,10491
1153,6507,11532
1417,6505,15484
1706,10855,13061
1071,5397,12254
1247,5468,17606
974,4760,10191
1396,7588,13681
1370,8142,10379
1789,9545,20455
609,2219,10031
1177,5914,12781
1553,5862,16147
606,3386,7755
1051,5211,11600
1699,7348,18162
1250,7951,12798
1411,6719,14779
1853,11463,13445
1211,6382,12366
1532,10174,11841
1261,4974,16257
1084,7218,9855
1084,4498,15928
1320,7234,11385
1731,7994,15742
738,4485,7310
1734,8621,14228
921,4143,12766
830,3714,9180
725,4203,7448
979,4521,11825
945,4905,9749
1388,8218,13363
1028,4824,11659
2164,10879,19706
1484,7399,19988
1513,8421,14294
684,3576,9643
1387,5402,13539
1191,8815,10633
1266,6884,13223
1360,7883,11735
1253,5806,11075
1089,6661,7168
1556,7511,12558
1666,7345,18036
1706,7058,18973
2313,13330,17447
1264,7734,16560
1177,6038,14852
1332,6327,18425
725,3787,8799
1860,13135,11203
1079,4787,11134
2378,13999,19726
1865,11369,13667
2010,11839,15525
655,4084,7278
1672,8892,12192
2505,16797,15849
1330,8766,10712
1190,6003,12605
984,3964,12577
1135,8521,6518
1286,6739,13180
1681,7519,20471
2714,14516,29525
852,4471,7130
2265,11076,25160
1420,8397,12115
1715,12217,12647
387,2242,3973
1950,8507,17457
1107,5930,9316
1937,9117,18103
1593,7653,15468
1024,3351,16415
1152,6766,11732
1488,8039,11909
733,4602,6018
1893,11682,10564
1744,9556,14325
1800,7469,17369
1083,5543,15317
1501,9134,10109
1109,6611,11538
2485,13549,30592
2117,9007,22073
1111,6947,9572
1642,10935,10610
782,5733,4764
681,2978,10065
1989,9215,17144
1745,10020,15561
897,6093,5220
1419,10223,8546
669,3789,4746
694,3755,8070
675,2795,11635
651,2958,7413
632,2697,6293
1322,7572,10557
821,3788,7207
2027,13609,12772
1362,7060,13359
1098,5722,10816
2000,11272,13377
1608,8263,19964
1965,11080,15908
2201,10191,16405
1698,7734,14763
603,3069,9364
1151,6838,8775
881,4783,12556
2492,12945,18301
1503,10566,11518
1116,4844,11342
1413,8603,12516
1070,5395,12029
875,5195,9016
2293,12325,23149
420,2031,5422
1585,8608,11317
1447,7204,14325
1527,6267,18845
1747,8026,16291
1714,9416,17993
1378,7362,14710
1708,11681,9792
1047,4719,12272
1478,7957,18739
2050,13245,13292
1230,7072,11480
1198,5491,13874
1897,9983,15009
1101,5357,12688
1443,9101,10014
1003,4550,16693
3073,18541,21216
1078,5569,11614
1634,6434,18779
1093,5340,14622
2432,13508,21754
1506,7678,13202
901,4420,10803
684,4005,8180
1817,8545,22185
1666,9564,18338
1605,6018,18581
2108,9953,23936
2132,11535,17367
1550,8634,14868
916,5423,7433
2304,17401,10830
2115,13005,15435
885,4397,9276
509,2396,6081
1367,7323,13843
776,3701,9437
1010,3641,13108
1792,10067,12492
1204,6651,11038
2187,11897,20187
936,4492,10856
1861,9211,17169
2199,12652,17889
771,4952,8432
993,5969,11525
1509,8004,14581
1262,7789,8917
572,3626,5596
782,4358,7132
2428,12201,21407
1990,10927,16181
2039,12069,14594
2387,14295,16116
1551,10007,12307
2313,8174,25139
1712,13292,10328
2051,11805,17969
1932,11347,16766
1435,9568,11958
1302,7035,14458
927,4373,10317
1364,7576,19033
962,4632,10277
1638,10743,10401
609,2511,8863
740,4624,7566
1632,8457,16599
1065,4960,8980
626,3257,7230
1603,8998,12353
1809,7962,18810
1229,6800,12231
834,3367,10819
1739,9058,17093
1472,8197,10985
1827,10926,16267
640,3079,7719
2287,12420,17172
834,5092,6882
2889,14947,26340
1546,7770,14742
1517,8476,13373
804,4583,11599
1517,9428,14709
1693,11895,10590
1828,13375,10104
1199,6946,10545
1379,7918,10720
1521,8617,14343
1443,7871,12881
1140,6186,13822
1604,9615,13529
934,5384,7794
916,4646,11602
1560,8700,12191
1363,7604,12805
1213,6306,11865
1437,7064,14508
1171,5828,13269
1282,6556,10905
916,5720,10444
1209,8559,9224
994,5249,9338
880,3595,13761
1081,6487,9056
1093,7238,8952
1346,7694,16382
1627,6858,19346
1203,6754,11904
1733,11578,10651
945,5161,11339
1849,9806,14658
1432,7667,15690
980,5895,8648
1597,8397,23443
1278,6727,17455
1122,6405,11959
1914,10541,16155
1284,6366,16766
1484,6842,18431
1297,6903,14519
1545,7590,16646
1930,10667,21482
1341,6555,14489
1049,4652,13286
1738,6797,23096
1880,10248,16131
945,4779,11464
513,2646,5854
759,5191,5790
1375,8941,7863
2333,11751,21267
1613,10007,14591
1285,6411,14015
979,4848,10094
2788,13856,29655
1794,9457,16849
1156,6876,11424
1081,5359,13930
1291,5752,11977
1948,11823,15580
1197,6731,13617
1777,8988,19189
2283,9503,25042
1257,6245,11626
1856,12157,13525
890,4402,11946
1315,5591,12232
1445,6111,16851
1446,6563,15239
1052,5724,10382
1730,9252,14512
747,5210,8493
1559,9511,11475
1302,6224,16522
1365,9381,12985
1433,11351,8683
1906,10906,12979
2083,9706,20956
2235,11887,20973
923,3815,11890
1809,10114,16344
1157,4993,10332
1459,8847,10390
1472,7991,14577
697,4516,5461
843,4285,12903
1635,8481,16545
1641,8019,20000
1846,7015,24016
2248,16698,13338
1469,8100,14629
1289,6521,12755
1759,7382,19658
1412,8421,10966
2013,11079,18688
1348,8095,12020
2096,10509,22320
1490,7388,13441
767,4711,6883
1796,8686,20656
1316,6999,13800
1852,10552,22427
799,4084,8634
1095,5277,12234
2101,12773,16631
1554,7333,17484
820,4547,9004
1630,9704,10695
1099,5964,13361
1068,7994,8518
2117,12704,16116
1016,5440,12409
843,3971,10865
1910,9262,20506
1568,7030,18629
1338,8453,10583
658,3230,7292
845,5084,9468
1265,7387,12649
384,2587,3572
2149,9083,27051
1038,5166,11693
1783,7548,19848
1219,6980,15642
592,3618,5222
2767,15683,23935
1399,9122,10373
738,5079,5964
1181,5266,16503
1921,10146,16309
1033,4273,12855
1819,10132,17806
615,2723,7934
1570,7626,17923
1123,6187,10830
628,3857,7119
1463,7619,13692
1083,7875,13046
1355,8345,17461
