Initialize SIGNATURE TABLE
ST_SET: 1
ST_WAY: 256
ST_TAG_BIT: 16
ST_TAG_MASK: ffff

Initialize PATTERN TABLE
PT_SET: 512
PT_WAY: 4
SIG_DELTA_BIT: 7
C_SIG_BIT: 4
C_DELTA_BIT: 4

Initialize PREFETCH FILTER
FILTER_SET: 1024

*** ChampSim Multicore Out-of-Order Simulator ***

Warmup Instructions: 50000000
Simulation Instructions: 50000000
Number of CPUs: 1
LLC sets: 2048
LLC ways: 16
Off-chip DRAM Size: 4096 MB Channels: 1 Width: 64-bit Data Rate: 3200 MT/s

CPU 0 runs /ChampSim-master-BTBX/dpc3_traces/server_028.champsimtrace.xz
Basic BTB sets: 4096 ways: 4 indirect buffer size: 4096 RAS size: 64
CPU 0 L1D next line prefetcher
Heartbeat CPU 0 instructions: 10000001 cycles: 3495943 heartbeat IPC: 2.86046 cumulative IPC: 2.86046 (Simulation time: 0 hr 0 min 19 sec) 
Heartbeat CPU 0 instructions: 20000002 cycles: 6991240 heartbeat IPC: 2.86099 cumulative IPC: 2.86072 (Simulation time: 0 hr 0 min 37 sec) 
Heartbeat CPU 0 instructions: 30000001 cycles: 10484861 heartbeat IPC: 2.86236 cumulative IPC: 2.86127 (Simulation time: 0 hr 0 min 55 sec) 
Heartbeat CPU 0 instructions: 40000002 cycles: 13984318 heartbeat IPC: 2.85759 cumulative IPC: 2.86035 (Simulation time: 0 hr 1 min 13 sec) 
Heartbeat CPU 0 instructions: 50000001 cycles: 17479919 heartbeat IPC: 2.86074 cumulative IPC: 2.86043 (Simulation time: 0 hr 1 min 31 sec) 

Warmup complete CPU 0 instructions: 50000001 cycles: 17479919 (Simulation time: 0 hr 1 min 31 sec) 

Heartbeat CPU 0 instructions: 60000002 cycles: 30690288 heartbeat IPC: 0.756981 cumulative IPC: 0.756981 (Simulation time: 0 hr 1 min 48 sec) 
Heartbeat CPU 0 instructions: 70000000 cycles: 43867595 heartbeat IPC: 0.75888 cumulative IPC: 0.75793 (Simulation time: 0 hr 2 min 6 sec) 
Heartbeat CPU 0 instructions: 80000000 cycles: 57094869 heartbeat IPC: 0.756014 cumulative IPC: 0.75729 (Simulation time: 0 hr 2 min 24 sec) 
*** Reached end of trace for Core: 0 Repeating trace: /ChampSim-master-BTBX/dpc3_traces/server_028.champsimtrace.xz
Heartbeat CPU 0 instructions: 90000000 cycles: 70294954 heartbeat IPC: 0.757571 cumulative IPC: 0.75736 (Simulation time: 0 hr 2 min 41 sec) 
Heartbeat CPU 0 instructions: 100000003 cycles: 83455003 heartbeat IPC: 0.759876 cumulative IPC: 0.757862 (Simulation time: 0 hr 2 min 59 sec) 
Finished CPU 0 instructions: 50000002 cycles: 65975084 cumulative IPC: 0.757862 (Simulation time: 0 hr 2 min 59 sec) 

ChampSim completed all CPUs

Region of Interest Statistics

CPU 0
XXX cumulative-IPC 0.757862
XXX instructions 50000002
XXX cycles 65975084
L1D TOTAL     ACCESS:   21447840  HIT:   19370356  MISS:    2077484
L1D LOAD      ACCESS:    7856048  HIT:    6821347  MISS:    1034701
L1D RFO       ACCESS:    6212973  HIT:    5929914  MISS:     283059
L1D PREFETCH  ACCESS:    7378819  HIT:    6619095  MISS:     759724
L1D WRITEBACK ACCESS:          0  HIT:          0  MISS:          0
L1D PREFETCH  REQUESTED:    7926879  ISSUED:    7846502
XXX L1D-USEFUL 190011
XXX L1D-USELESS 569714
L1D AVERAGE MISS LATENCY: 22.9542 cycles
L1I TOTAL     ACCESS:   13672232  HIT:   10149786  MISS:    3522446
L1I LOAD      ACCESS:    9286109  HIT:    7327648  MISS:    1958461
L1I RFO       ACCESS:          0  HIT:          0  MISS:          0
L1I PREFETCH  ACCESS:    4386123  HIT:    2822138  MISS:    1563985
L1I WRITEBACK ACCESS:          0  HIT:          0  MISS:          0
L1I PREFETCH  REQUESTED:    7411565  ISSUED:    7411565
XXX L1I-USEFUL 983663
XXX L1I-USELESS 580331
L1I AVERAGE MISS LATENCY: 13.4701 cycles
L2C TOTAL     ACCESS:    7895229  HIT:    6697447  MISS:    1197782
L2C LOAD      ACCESS:    1824842  HIT:    1486879  MISS:     337963
L2C RFO       ACCESS:     281067  HIT:     188564  MISS:      92503
L2C PREFETCH  ACCESS:    5183933  HIT:    4422889  MISS:     761044
L2C WRITEBACK ACCESS:     605387  HIT:     599115  MISS:       6272
L2C PREFETCH  REQUESTED:    5377424  ISSUED:    5376347
XXX L2C-USEFUL 49841
XXX L2C-USELESS 710423
L2C AVERAGE MISS LATENCY: 37.161 cycles
LLC TOTAL     ACCESS:    2548283  HIT:    2483615  MISS:      64668
LLC LOAD      ACCESS:     337616  HIT:     321316  MISS:      16300
LLC RFO       ACCESS:      92502  HIT:      90493  MISS:       2009
LLC PREFETCH  ACCESS:    1954675  HIT:    1908582  MISS:      46093
LLC WRITEBACK ACCESS:     163490  HIT:     163224  MISS:        266
LLC PREFETCH  REQUESTED:          0  ISSUED:          0
XXX LLC-USEFUL 2144
XXX LLC-USELESS 43193
LLC AVERAGE MISS LATENCY: 152.607 cycles
Major fault: 0 Minor fault: 6043
XXX disp-0 2357225
XXX disp-1 0
XXX disp-2 1684
XXX disp-3 372547
XXX disp-4 1510538
XXX disp-5 1092990
XXX disp-6 1332738
XXX disp-7 713592
XXX disp-8 632787
XXX disp-9 369493
XXX disp-10 264771
XXX disp-11 240538
XXX disp-12 116687
XXX disp-13 154849
XXX disp-14 127554
XXX disp-15 164156
XXX disp-16 85457
XXX disp-17 44581
XXX disp-18 158116
XXX disp-19 97832
XXX disp-20 123461
XXX disp-21 296708
XXX disp-22 168698
XXX disp-23 425524
XXX disp-24 81703
XXX disp-25 0
XXX disp-26 0
XXX disp-27 0
XXX disp-28 0
XXX disp-29 0
XXX disp-30 0
XXX disp-31 0
XXX disp-32 0
XXX disp-33 0
XXX disp-34 0
XXX disp-35 0
XXX disp-36 0
XXX disp-37 0
XXX disp-38 0
XXX disp-39 0
XXX disp-40 0
XXX disp-41 0
XXX disp-42 0
XXX disp-43 0
XXX disp-44 0
XXX disp-45 0
XXX disp-46 236545
XXX disp-47 0
XXX disp-48 0
XXX disp-49 0
XXX disp-50 0
XXX disp-51 0
XXX disp-52 0
XXX disp-53 0
XXX disp-54 0
XXX disp-55 0
XXX disp-56 0
XXX disp-57 0
XXX disp-58 0
XXX disp-59 0
XXX disp-60 0
XXX disp-61 0
XXX disp-62 0
XXX disp-63 1
XXX disp-64 0
XXX disp-65 0
XXX diffBits-0 2357225
XXX diffBits-1 1603
XXX diffBits-2 155047
XXX diffBits-3 606843
XXX diffBits-4 1142208
XXX diffBits-5 1167861
XXX diffBits-6 865016
XXX diffBits-7 663322
XXX diffBits-8 482602
XXX diffBits-9 565124
XXX diffBits-10 422577
XXX diffBits-11 266395
XXX diffBits-12 205847
XXX diffBits-13 165324
XXX diffBits-14 85623
XXX diffBits-15 126563
XXX diffBits-16 139879
XXX diffBits-17 108666
XXX diffBits-18 69258
XXX diffBits-19 155171
XXX diffBits-20 246935
XXX diffBits-21 265153
XXX diffBits-22 481641
XXX diffBits-23 0
XXX diffBits-24 0
XXX diffBits-25 188346
XXX diffBits-26 0
XXX diffBits-27 0
XXX diffBits-28 0
XXX diffBits-29 0
XXX diffBits-30 0
XXX diffBits-31 0
XXX diffBits-32 0
XXX diffBits-33 0
XXX diffBits-34 0
XXX diffBits-35 0
XXX diffBits-36 0
XXX diffBits-37 0
XXX diffBits-38 0
XXX diffBits-39 0
XXX diffBits-40 0
XXX diffBits-41 0
XXX diffBits-42 0
XXX diffBits-43 0
XXX diffBits-44 0
XXX diffBits-45 236545
XXX diffBits-46 0
XXX diffBits-47 0
XXX diffBits-48 0
XXX diffBits-49 0
XXX diffBits-50 0
XXX diffBits-51 0
XXX diffBits-52 0
XXX diffBits-53 0
XXX diffBits-54 0
XXX diffBits-55 0
XXX diffBits-56 0
XXX diffBits-57 0
XXX diffBits-58 0
XXX diffBits-59 0
XXX diffBits-60 0
XXX diffBits-61 0
XXX diffBits-62 1
XXX diffBits-63 0
XXX diffBits-64 0
XXX diffBits-65 0
CPU 0 L1D next line prefetcher final stats

DRAM Statistics
 CHANNEL 0
 RQ ROW_BUFFER_HIT:      18244  ROW_BUFFER_MISS:      46158
 DBUS_CONGESTED:      24991
 WQ ROW_BUFFER_HIT:        353  ROW_BUFFER_MISS:       3149  FULL:          0

 AVG_CONGESTED_CYCLE: 4

CPU 0 Branch Prediction Accuracy: 86.5205% MPKI: 25.3659 Average ROB Occupancy at Mispredict: 55.3907

XXX total_mispredicts 1268297
XXX total_target_mispredicts1 982824
XXX total_target_mispredicts2 260863
XXX total_direction_mispredicts 24610
XXX mispredict_on_btb_hit 226969
XXX NOT_BRANCH: 0
XXX BRANCH_DIRECT_JUMP: 0
XXX BRANCH_INDIRECT: 17185
XXX BRANCH_CONDITIONAL: 0
XXX BRANCH_DIRECT_CALL: 0
XXX BRANCH_INDIRECT_CALL: 11927
XXX BRANCH_RETURN: 197857
XXX BRANCH_OTHER: 0
Branch types
NOT_BRANCH: 40590807 81.1816%
BRANCH_DIRECT_JUMP: 523490 1.04698%
BRANCH_INDIRECT: 166997 0.333994%
BRANCH_CONDITIONAL: 6365177 12.7304%
BRANCH_DIRECT_CALL: 989490 1.97898%
BRANCH_INDIRECT_CALL: 187202 0.374404%
BRANCH_RETURN: 1176694 2.35339%
BRANCH_OTHER: 0 0%

XXX BTB_reads: 15233988
XXX BTB_writes: 1016716
XXX PageBTB_reads: 0
XXX PageBTB_writes: 0
XXX PageBTB_readsBeforeWrite: 0
XXX RegionBTB_reads: 0
XXX RegionBTB_writes: 0
XXX RegionBTB_readsBeforeWrite: 0
XXX BTB_4D_Hits 918559
XXX BTB_6D_Hits 934537
XXX BTB_8D_Hits 706067
XXX BTB_12D_Hits 367607
XXX BTB_18D_Hits 247422
XXX BTB_25D_Hits 192610
XXX BTB_46D_Hits 69949
XXX BTB_Ret_Hits 1128261
XXX BTB_4D_Misses 31485
XXX BTB_6D_Misses 23885
XXX BTB_8D_Misses 97011
XXX BTB_12D_Misses 111864
XXX BTB_18D_Misses 87223
XXX BTB_25D_Misses 223021
XXX BTB_46D_Misses 393794
XXX BTB_Ret_Misses 48433
XXX Num_unique_branches 8501
total instructions: 0
wc,tif,trb
5662,24305,113803
219,1588,3127
182,1434,2972
416,2618,4628
12,27,169
15,94,59
3448,20857,44241
6339,22804,115139
6194,62752,60365
6256,48479,66945
4405,42214,45255
6988,31555,112693
15,93,180
251,2010,3931
170,662,3486
12,24,124
4272,40540,53164
226,1986,2992
3646,13019,77064
8,34,46
3586,23336,58370
8,23,57
3052,19804,56370
3213,11236,68975
4627,19317,96176
4143,39627,49396
1832,13279,17367
3111,12556,65087
3053,16748,59436
4,9,32
8288,29985,151504
267,2615,2979
8273,54998,77419
239,758,5045
3215,15522,64559
476,2247,6376
3210,9678,70452
4176,16999,79023
3404,14293,66653
837,2032,18852
197,1477,3365
8,30,50
170,2043,2087
251,1233,4922
189,689,3696
737,5240,5318
573,3094,5799
4664,14242,102238
3053,4587,71639
1737,11972,27548
48,358,638
10284,60529,120845
9626,61307,113079
145,363,3162
169,1142,2164
6321,31438,119987
3138,19820,58426
9,19,74
4978,37056,67962
175,422,3797
6,8,58
12128,38563,151372
3832,31164,51116
196,432,4239
10,28,70
10251,58031,100430
2914,11426,61320
182,1055,3451
6067,33239,84794
410,2345,5001
249,1391,4002
4573,41120,59387
3216,12683,66561
2551,18483,36630
1455,5091,31164
491,5029,3917
5062,16701,85702
2566,12262,50762
3357,23684,55761
7473,41820,91187
2684,26466,37699
289,2095,3610
4635,16956,95678
10,92,38
7505,46703,118396
250,2102,2300
5,1,51
13906,55072,184767
12557,78658,101388
16,124,126
7969,64625,65055
6,7,60
3107,12676,64829
7,10,65
3537,17567,67767
6346,52169,83692
7621,52296,91523
748,4828,3964
8210,57311,120118
847,4302,9345
6,3,61
4725,31354,73471
2911,4365,68310
11904,96220,63986
6,15,56
5,7,18
10534,81237,97347
3276,28802,51152
3046,21251,54696
2849,26126,41655
4568,25307,88830
8043,61197,114874
173,767,3458
1499,9565,22798
14,102,80
14,37,97
174,930,2393
8862,73497,76889
169,1224,2901
11929,79928,103867
649,4911,7178
2439,25395,32562
3052,13723,62457
361,3228,4524
5,2,42
252,2605,2825
9,24,110
452,2874,7393
5217,28178,102136
172,2594,1426
606,4975,3991
8310,85398,41111
5899,55683,46146
2891,8422,63772
3,2,14
358,1323,7507
8,20,60
250,1146,2571
1196,11288,15654
265,2505,1341
815,3526,12134
416,3689,5313
12,88,92
3216,6441,73827
57,623,299
4880,40138,64496
6,12,32
180,884,3430
2874,29627,37057
1648,9472,31608
9311,54886,126997
13820,84508,138618
2,1,8
451,3932,4345
168,656,3444
3,5,27
2935,17637,53292
8,25,55
2960,15357,57525
187,2036,2407
290,2222,3284
7,10,61
185,782,1172
7906,36715,108334
359,1737,5930
221,1313,3866
292,1499,4979
8,15,65
253,2815,2630
265,1293,5046
333,3141,2886
3298,28144,51733
3879,29080,52463
5,21,50
169,662,3468
801,6038,5155
3050,7629,68521
165,1200,2821
4,6,28
6287,39392,94711
151,2110,1386
297,2699,4613
2,1,6
10,27,91
1659,8812,15472
253,2957,2523
475,2977,3218
584,3858,6650
6080,25884,107857
7631,43744,128372
8,6,135
13383,77072,133485
7959,61312,87804
7,7,68
7,19,50
15,103,92
549,4922,3423
9,25,93
9213,87505,49836
189,582,3827
18,65,241
3165,23507,46808
10,71,59
36,572,208
170,987,3170
256,2752,2729
10,23,79
14,61,133
119,1658,861
12446,101282,76287
6,11,39
13,64,161
379,1200,7117
677,4175,4727
3216,9669,70611
1096,8250,11776
7447,61816,47211
10,23,151
6,9,51
167,497,3612
416,2324,4318
5,11,18
8,20,60
3628,12642,73559
6,19,49
240,2157,3063
252,2417,3031
6095,25889,108108
2220,5544,49871
1224,9927,19899
168,980,3132
4,8,20
9089,79689,81896
3545,12720,71771
1899,7931,38383
3332,12034,67538
3214,11784,67474
7420,58032,80394
6,28,48
4809,9840,110297
10,47,97
5,5,63
182,746,3588
252,2944,2536
3666,40415,43277
6218,44234,69500
8085,48198,97003
11,80,141
4756,50906,50050
3002,17058,57888
170,503,2655
436,3055,3919
198,1501,2955
10706,50672,125892
5,14,50
3050,12052,64022
9285,50737,111695
4985,50479,55384
5,6,34
3050,4576,71570
3055,12214,64039
255,884,5377
97,462,1837
379,3011,4720
2098,14042,17527
3132,13716,64464
3,0,21
5561,16271,109058
2370,25125,26185
31,317,178
5,3,39
3289,12339,69526
318,2519,3239
7,10,63
3436,17616,63780
1058,13278,11926
3061,10701,65707
793,4383,6552
703,5694,8533
6153,36864,107258
4394,20401,72929
14,108,68
59,595,466
3053,6102,70129
4,6,32
6,39,36
11956,52262,138808
3296,22572,56042
13608,45458,157540
938,6383,4745
3461,23207,58508
14,100,72
12,80,76
7057,30677,95167
653,3686,7329
7,28,33
3229,32221,38272
18,95,159
114,386,2344
108,732,1085
8,41,39
3050,16745,59403
49,440,409
748,5245,8223
2704,7836,59164
7266,63903,69853
8,38,42
199,835,3955
8,29,51
24,127,209
409,2956,4041
63,486,518
3129,8019,70133
1374,12369,15059
186,2234,2151
40,268,594
6020,28633,104377
6073,48248,59776
6091,32505,101645
3199,15909,63138
8617,74271,80792
232,1079,4245
14727,106348,76192
16462,83278,131027
3057,6273,70070
4,13,38
959,9279,5133
342,1391,6873
2288,9137,47963
18,110,168
14528,90953,144869
6184,49073,85620
5919,34074,96015
3175,27861,50114
11076,87804,79817
3711,11360,75935
5820,44517,84723
406,1630,7468
333,3552,2475
4154,38720,54954
464,1094,8762
11375,56573,153150
10976,78915,85864
469,2156,5939
3498,14692,70194
3471,12033,70966
4559,23734,66680
4647,20060,95827
3606,24995,61497
3948,20275,78305
3302,40421,36741
6289,36486,99415
6,9,57
487,3379,5608
14011,72030,118235
10094,31263,143554
7333,67003,64640
3084,25488,28388
3226,11867,67691
307,2425,1678
3265,26416,51028
330,1475,5713
18,121,181
560,2552,6748
6430,30932,107752
9345,72518,78622
206,601,4379
59,375,1026
3623,7375,76568
3599,24192,57385
3976,19242,78028
2949,24682,47345
608,3947,6706
7,37,56
953,8223,7488
19,152,121
2827,15384,54629
438,3038,5230
5687,50039,72972
3298,18775,59893
10735,66958,109115
648,4722,8164
7298,34816,117243
5,10,47
922,5347,8566
7,16,53
9,22,138
5292,30121,81958
6259,29267,108824
3160,9228,69380
5067,13356,101477
10108,54362,145237
312,1891,3324
17418,97889,136342
3339,12509,67782
7952,21118,132698
7297,68396,48639
18285,105992,96441
3049,16750,59392
2910,26944,43635
10135,71913,103566
15311,69316,217263
8117,60193,86042
22,160,270
3062,14482,60976
4971,18318,102125
24,137,187
3328,12113,70171
17336,96735,142807
8,29,51
355,3561,3938
3164,29182,47644
8293,60352,118091
13451,71519,142648
15503,70416,177694
655,2696,7013
335,3808,2397
238,1810,3300
17,110,142
3598,12439,73421
5,7,33
727,3354,3899
376,3596,2988
10980,73477,104367
292,1507,4839
13,94,111
419,2368,6431
8,10,70
9622,57031,92137
5,5,51
6,11,57
4506,51773,45275
410,3542,4166
169,1436,1741
3607,33193,51368
5,13,47
193,1237,3186
3269,10262,70909
4354,23722,68616
6260,52229,84581
7900,55909,88736
9688,68210,80860
4603,47347,51874
873,3465,10885
16396,81851,167536
6573,29387,132956
4206,24696,61178
5196,27254,89015
19,99,186
10939,54166,121295
10059,68555,118940
3614,28433,57542
4738,13267,105035
1696,12321,28761
169,261,3860
5197,60603,44253
2401,6021,51901
9626,56958,103291
7817,55992,90165
18637,97368,199393
9464,40538,129132
8,29,51
4461,29706,68305
5737,13256,116217
20403,116990,152426
3,4,5
3357,7462,76391
741,3370,9849
29,212,409
1754,15860,24707
408,2707,1505
3054,12206,64024
9609,58485,115574
585,3035,9527
289,2017,2632
4949,33811,72458
3050,9145,66999
17363,107169,160693
10985,85845,73151
429,1806,8799
7731,41490,133155
7,9,67
3283,29482,49298
18601,114991,101454
6281,31625,88546
338,1299,5176
552,5255,3306
4214,14978,90277
7,15,95
6309,43371,92012
9234,45377,125753
13,88,99
4374,27390,68800
9323,50191,120634
3213,15424,64850
338,3260,4125
3331,17111,52392
173,594,3651
3294,5589,76647
400,3553,4979
168,415,3689
270,1720,2314
3671,23579,62972
302,2880,4332
11,48,89
51,191,974
3222,20744,58414
255,1823,4430
6541,47577,90518
3916,30329,62508
11961,48332,142034
2314,19442,36013
