Initialize SIGNATURE TABLE
ST_SET: 1
ST_WAY: 256
ST_TAG_BIT: 16
ST_TAG_MASK: ffff

Initialize PATTERN TABLE
PT_SET: 512
PT_WAY: 4
SIG_DELTA_BIT: 7
C_SIG_BIT: 4
C_DELTA_BIT: 4

Initialize PREFETCH FILTER
FILTER_SET: 1024

*** ChampSim Multicore Out-of-Order Simulator ***

Warmup Instructions: 50000000
Simulation Instructions: 50000000
Number of CPUs: 1
LLC sets: 2048
LLC ways: 16
Off-chip DRAM Size: 4096 MB Channels: 1 Width: 64-bit Data Rate: 3200 MT/s

CPU 0 runs /ChampSim-master-BTBX/dpc3_traces/server_023.champsimtrace.xz
Basic BTB sets: 4096 ways: 4 indirect buffer size: 4096 RAS size: 64
CPU 0 L1D next line prefetcher
Heartbeat CPU 0 instructions: 10000000 cycles: 3499726 heartbeat IPC: 2.85737 cumulative IPC: 2.85737 (Simulation time: 0 hr 0 min 18 sec) 
Heartbeat CPU 0 instructions: 20000000 cycles: 6998473 heartbeat IPC: 2.85817 cumulative IPC: 2.85777 (Simulation time: 0 hr 0 min 36 sec) 
Heartbeat CPU 0 instructions: 30000001 cycles: 10490961 heartbeat IPC: 2.86329 cumulative IPC: 2.8596 (Simulation time: 0 hr 0 min 54 sec) 
Heartbeat CPU 0 instructions: 40000003 cycles: 13989777 heartbeat IPC: 2.85811 cumulative IPC: 2.85923 (Simulation time: 0 hr 1 min 12 sec) 
Heartbeat CPU 0 instructions: 50000001 cycles: 17489868 heartbeat IPC: 2.85707 cumulative IPC: 2.8588 (Simulation time: 0 hr 1 min 30 sec) 

Warmup complete CPU 0 instructions: 50000001 cycles: 17489868 (Simulation time: 0 hr 1 min 30 sec) 

Heartbeat CPU 0 instructions: 60000002 cycles: 29809327 heartbeat IPC: 0.811724 cumulative IPC: 0.811724 (Simulation time: 0 hr 1 min 48 sec) 
Heartbeat CPU 0 instructions: 70000000 cycles: 42214154 heartbeat IPC: 0.806138 cumulative IPC: 0.808921 (Simulation time: 0 hr 2 min 5 sec) 
Heartbeat CPU 0 instructions: 80000000 cycles: 54479480 heartbeat IPC: 0.815306 cumulative IPC: 0.811038 (Simulation time: 0 hr 2 min 22 sec) 
Heartbeat CPU 0 instructions: 90000000 cycles: 65895063 heartbeat IPC: 0.875996 cumulative IPC: 0.826358 (Simulation time: 0 hr 2 min 39 sec) 
Heartbeat CPU 0 instructions: 100000001 cycles: 78308181 heartbeat IPC: 0.805599 cumulative IPC: 0.822121 (Simulation time: 0 hr 2 min 56 sec) 
Finished CPU 0 instructions: 50000000 cycles: 60818313 cumulative IPC: 0.822121 (Simulation time: 0 hr 2 min 56 sec) 

ChampSim completed all CPUs

Region of Interest Statistics

CPU 0
XXX cumulative-IPC 0.822121
XXX instructions 50000000
XXX cycles 60818313
L1D TOTAL     ACCESS:   21430125  HIT:   19960413  MISS:    1469712
L1D LOAD      ACCESS:    7840819  HIT:    7190723  MISS:     650096
L1D RFO       ACCESS:    6064415  HIT:    5803973  MISS:     260442
L1D PREFETCH  ACCESS:    7524891  HIT:    6965717  MISS:     559174
L1D WRITEBACK ACCESS:          0  HIT:          0  MISS:          0
L1D PREFETCH  REQUESTED:    7897761  ISSUED:    7785948
XXX L1D-USEFUL 142032
XXX L1D-USELESS 417149
L1D AVERAGE MISS LATENCY: 25.3745 cycles
L1I TOTAL     ACCESS:   13257027  HIT:   10314836  MISS:    2942191
L1I LOAD      ACCESS:    9113721  HIT:    7517890  MISS:    1595831
L1I RFO       ACCESS:          0  HIT:          0  MISS:          0
L1I PREFETCH  ACCESS:    4143306  HIT:    2796946  MISS:    1346360
L1I WRITEBACK ACCESS:          0  HIT:          0  MISS:          0
L1I PREFETCH  REQUESTED:    6610421  ISSUED:    6610421
XXX L1I-USEFUL 854628
XXX L1I-USELESS 491731
L1I AVERAGE MISS LATENCY: 13.1187 cycles
L2C TOTAL     ACCESS:    6143456  HIT:    5132870  MISS:    1010586
L2C LOAD      ACCESS:    1287743  HIT:    1057467  MISS:     230276
L2C RFO       ACCESS:     258620  HIT:     151546  MISS:     107074
L2C PREFETCH  ACCESS:    4097585  HIT:    3428924  MISS:     668661
L2C WRITEBACK ACCESS:     499508  HIT:     494933  MISS:       4575
L2C PREFETCH  REQUESTED:    3980237  ISSUED:    3979870
XXX L2C-USEFUL 77456
XXX L2C-USELESS 590286
L2C AVERAGE MISS LATENCY: 38.1356 cycles
LLC TOTAL     ACCESS:    2017460  HIT:    1970132  MISS:      47328
LLC LOAD      ACCESS:     229943  HIT:     224856  MISS:       5087
LLC RFO       ACCESS:     107061  HIT:      89077  MISS:      17984
LLC PREFETCH  ACCESS:    1505146  HIT:    1481023  MISS:      24123
LLC WRITEBACK ACCESS:     175310  HIT:     175176  MISS:        134
LLC PREFETCH  REQUESTED:          0  ISSUED:          0
XXX LLC-USEFUL 1834
XXX LLC-USELESS 21580
LLC AVERAGE MISS LATENCY: 169.031 cycles
Major fault: 0 Minor fault: 2775
XXX disp-0 2065835
XXX disp-1 0
XXX disp-2 1977
XXX disp-3 480369
XXX disp-4 1125013
XXX disp-5 1204145
XXX disp-6 1428061
XXX disp-7 704767
XXX disp-8 724187
XXX disp-9 413019
XXX disp-10 284052
XXX disp-11 205194
XXX disp-12 111181
XXX disp-13 123347
XXX disp-14 114951
XXX disp-15 135110
XXX disp-16 56962
XXX disp-17 68605
XXX disp-18 133800
XXX disp-19 120110
XXX disp-20 130655
XXX disp-21 255373
XXX disp-22 164320
XXX disp-23 322629
XXX disp-24 112093
XXX disp-25 0
XXX disp-26 0
XXX disp-27 0
XXX disp-28 0
XXX disp-29 0
XXX disp-30 0
XXX disp-31 0
XXX disp-32 0
XXX disp-33 0
XXX disp-34 0
XXX disp-35 0
XXX disp-36 0
XXX disp-37 0
XXX disp-38 0
XXX disp-39 0
XXX disp-40 0
XXX disp-41 0
XXX disp-42 0
XXX disp-43 0
XXX disp-44 0
XXX disp-45 0
XXX disp-46 282552
XXX disp-47 0
XXX disp-48 0
XXX disp-49 0
XXX disp-50 0
XXX disp-51 0
XXX disp-52 0
XXX disp-53 0
XXX disp-54 0
XXX disp-55 0
XXX disp-56 0
XXX disp-57 0
XXX disp-58 0
XXX disp-59 0
XXX disp-60 0
XXX disp-61 0
XXX disp-62 0
XXX disp-63 7
XXX disp-64 0
XXX disp-65 0
XXX diffBits-0 2065835
XXX diffBits-1 1324
XXX diffBits-2 181340
XXX diffBits-3 696960
XXX diffBits-4 743483
XXX diffBits-5 1023148
XXX diffBits-6 744486
XXX diffBits-7 1115978
XXX diffBits-8 495023
XXX diffBits-9 581020
XXX diffBits-10 515158
XXX diffBits-11 293540
XXX diffBits-12 179255
XXX diffBits-13 164713
XXX diffBits-14 53749
XXX diffBits-15 92210
XXX diffBits-16 131551
XXX diffBits-17 103594
XXX diffBits-18 77059
XXX diffBits-19 111801
XXX diffBits-20 287180
XXX diffBits-21 243778
XXX diffBits-22 371143
XXX diffBits-23 0
XXX diffBits-24 0
XXX diffBits-25 212427
XXX diffBits-26 0
XXX diffBits-27 0
XXX diffBits-28 0
XXX diffBits-29 0
XXX diffBits-30 0
XXX diffBits-31 0
XXX diffBits-32 0
XXX diffBits-33 0
XXX diffBits-34 0
XXX diffBits-35 0
XXX diffBits-36 0
XXX diffBits-37 0
XXX diffBits-38 0
XXX diffBits-39 0
XXX diffBits-40 0
XXX diffBits-41 0
XXX diffBits-42 0
XXX diffBits-43 0
XXX diffBits-44 0
XXX diffBits-45 282552
XXX diffBits-46 0
XXX diffBits-47 0
XXX diffBits-48 0
XXX diffBits-49 0
XXX diffBits-50 0
XXX diffBits-51 0
XXX diffBits-52 0
XXX diffBits-53 0
XXX diffBits-54 0
XXX diffBits-55 0
XXX diffBits-56 0
XXX diffBits-57 0
XXX diffBits-58 0
XXX diffBits-59 0
XXX diffBits-60 0
XXX diffBits-61 0
XXX diffBits-62 7
XXX diffBits-63 0
XXX diffBits-64 0
XXX diffBits-65 0
CPU 0 L1D next line prefetcher final stats

DRAM Statistics
 CHANNEL 0
 RQ ROW_BUFFER_HIT:      14571  ROW_BUFFER_MISS:      32612
 DBUS_CONGESTED:      29251
 WQ ROW_BUFFER_HIT:       2342  ROW_BUFFER_MISS:      19287  FULL:          0

 AVG_CONGESTED_CYCLE: 5

CPU 0 Branch Prediction Accuracy: 86.0071% MPKI: 25.6114 Average ROB Occupancy at Mispredict: 50.8027

XXX total_mispredicts 1280570
XXX total_target_mispredicts1 958848
XXX total_target_mispredicts2 300623
XXX total_direction_mispredicts 21099
XXX mispredict_on_btb_hit 188985
XXX NOT_BRANCH: 0
XXX BRANCH_DIRECT_JUMP: 0
XXX BRANCH_INDIRECT: 16677
XXX BRANCH_CONDITIONAL: 0
XXX BRANCH_DIRECT_CALL: 1
XXX BRANCH_INDIRECT_CALL: 13453
XXX BRANCH_RETURN: 158854
XXX BRANCH_OTHER: 0
Branch types
NOT_BRANCH: 40848107 81.6962%
BRANCH_DIRECT_JUMP: 548368 1.09674%
BRANCH_INDIRECT: 189802 0.379604%
BRANCH_CONDITIONAL: 6372722 12.7454%
BRANCH_DIRECT_CALL: 862206 1.72441%
BRANCH_INDIRECT_CALL: 158147 0.316294%
BRANCH_RETURN: 1020342 2.04068%
BRANCH_OTHER: 0 0%

XXX BTB_reads: 15414012
XXX BTB_writes: 1070480
XXX PageBTB_reads: 0
XXX PageBTB_writes: 0
XXX PageBTB_readsBeforeWrite: 0
XXX RegionBTB_reads: 0
XXX RegionBTB_writes: 0
XXX RegionBTB_readsBeforeWrite: 0
XXX BTB_4D_Hits 755413
XXX BTB_6D_Hits 836273
XXX BTB_8D_Hits 910319
XXX BTB_12D_Hits 391188
XXX BTB_18D_Hits 206618
XXX BTB_25D_Hits 157438
XXX BTB_46D_Hits 86748
XXX BTB_Ret_Hits 956279
XXX BTB_4D_Misses 45841
XXX BTB_6D_Misses 37593
XXX BTB_8D_Misses 112418
XXX BTB_12D_Misses 114218
XXX BTB_18D_Misses 100347
XXX BTB_25D_Misses 210332
XXX BTB_46D_Misses 385668
XXX BTB_Ret_Misses 64063
XXX Num_unique_branches 12696
total instructions: 0
wc,tif,trb
3732,9499,83201
4408,26823,47158
2817,18531,25664
3128,20301,40657
1735,8232,34697
2036,17338,21288
4872,27888,65163
5724,24302,102932
6899,51781,69963
4822,37069,59337
3397,26695,29626
11728,64995,125823
22,96,306
2365,14644,34197
1141,5645,21840
2289,11447,32937
1563,14849,17974
727,2947,15026
4160,17005,82820
327,2712,4539
7540,48977,81727
34,205,431
6579,38480,58515
4316,19118,68170
4875,21769,79093
6898,42156,61359
2877,20428,20666
2503,10059,52218
4966,20966,95166
485,3093,8916
6465,30225,107958
2328,19847,34174
2944,21708,28298
1567,10794,18295
4731,22117,71748
1676,11822,19185
3993,13084,81963
9940,50774,113446
3249,12264,57107
2089,4622,47305
16,104,142
2007,19420,15711
743,2722,15609
1968,9822,39258
3962,22995,54774
5997,41519,28436
1103,6141,15938
3485,11467,72120
4931,21744,69829
5174,28644,60074
13,73,136
7343,40100,76734
4382,12395,75681
12,67,91
3488,20955,35130
4120,14211,85363
3546,23674,51482
240,1152,4094
3189,14261,51140
12,93,47
1031,1575,24022
7631,32730,94515
6696,42693,82401
12,20,189
2805,11355,43908
9081,51791,89220
8935,37875,92842
3179,22225,46592
3313,22216,46349
4645,26143,56320
3056,15546,52870
4861,36248,53861
2534,9887,48043
4716,38448,49032
1895,8614,38282
1375,10874,17883
5555,25849,82696
5866,35727,65804
3842,17901,66677
9013,45976,110823
2956,29536,32903
783,3687,13452
6620,20865,126809
2531,20716,13680
3931,23522,59667
25,130,253
1472,8024,27708
8657,46904,94170
3569,22006,36572
2479,15812,20612
6659,43306,57365
1976,5158,39956
2579,11166,48055
2659,15356,38062
4437,22088,75221
7489,41395,80369
4754,23184,71167
4294,26543,30083
6824,40486,110531
2592,9664,33326
2816,6493,55753
5987,28871,82770
1252,1909,29259
12878,68109,117953
715,2500,15250
1505,6967,29298
10464,72306,99173
6114,36428,92458
3400,16197,62781
8835,61373,77335
3129,14595,63194
7513,42384,104442
2400,13859,39523
8467,38485,81040
295,3128,3937
909,3725,18511
2004,6446,39325
8061,62537,62729
2221,8343,41352
7732,49149,54547
5710,34913,62483
6904,34185,91993
1315,5788,26089
6917,48241,51788
2768,14119,43591
1802,15016,24040
2033,8243,27629
2567,17417,37066
6863,34791,113092
2579,14670,33575
1821,14666,12189
8232,66398,38612
7638,55343,59385
1055,2064,24133
12,37,131
2269,15986,34969
862,5671,15229
1039,4990,10891
7641,47918,59007
1331,7013,17512
1990,8793,35623
551,5375,5724
36,191,378
2744,6181,60903
3538,19689,41537
6195,41383,70564
1310,5262,27316
1882,12236,22882
7311,43859,50665
4373,27731,43093
12241,63827,143238
8889,44716,103846
42,245,405
2458,16257,35447
158,1076,2510
2610,10453,46950
4078,20512,54218
109,728,1841
3915,18824,59410
3423,25008,39371
19,114,171
1206,5390,24620
4034,20848,48931
3405,20590,64187
807,1543,17986
107,463,1079
888,4843,17173
1964,11765,31392
7310,42930,71163
776,3544,15073
2082,16395,16991
1447,5058,30969
8714,42312,75627
25,135,376
23,84,359
2024,15535,14991
2138,6469,46880
703,5143,12054
696,37,17273
5138,24058,74580
237,1297,4220
2688,19302,43700
9,37,54
697,2458,14714
5588,33657,45066
1187,12334,11857
762,6726,9817
1826,18244,18274
2713,14582,48357
4259,23177,71903
15,23,234
7066,41562,69210
7162,32479,80580
17,64,187
1383,7260,22967
3094,24782,21757
5382,38746,40380
3444,21274,34208
4748,39798,27360
1712,11013,31555
1461,5391,29357
5020,26592,64471
47,295,364
3505,26792,35563
1830,9307,28567
2368,19536,25918
1313,2660,29957
2460,15062,20977
14,79,91
8047,60265,48271
1346,6070,27418
10,47,83
574,4295,9571
3716,25349,36562
1516,4623,33085
1416,9144,22682
8082,64148,43062
33,106,350
1197,10260,17172
246,750,5280
3929,36263,38998
17,87,120
1346,5409,27636
5369,30837,75887
1761,5671,36733
3512,23272,25117
1728,7842,31938
4751,15782,72823
1196,4789,24514
5981,25644,74408
15,61,124
436,1754,8984
5609,33749,68674
5472,35192,54513
1175,8636,20430
6905,34373,77960
4733,14544,85731
5633,36608,56443
2628,16646,35890
6376,20556,134114
2150,18610,27713
249,740,3909
3479,20703,30431
585,5362,5807
7583,60351,46754
3539,25162,40037
5474,29841,49452
1027,5317,18266
3207,32247,40238
4193,12896,82673
1326,5278,27616
2778,13943,30179
1841,12746,19993
6838,32531,84715
22,77,268
2244,9016,46796
9754,47326,106373
2890,16223,39253
14,79,127
3923,17361,68662
2548,10191,53337
855,3412,17781
1793,11175,21060
15,66,175
2824,9972,33721
3287,15572,51331
10,42,114
5828,22274,93259
3392,24021,36054
4209,34406,23650
14,86,102
1970,8535,40443
676,7339,7016
248,965,3543
6823,39168,82746
1791,11751,20043
3379,12757,65264
3130,17151,44405
1104,7592,7423
2956,13137,55543
4265,19404,73269
622,5656,3202
1126,5046,19258
2573,5110,59061
2074,8939,38077
8,45,35
8289,42016,86597
3916,30877,40964
8253,37895,106903
5399,39515,35687
3163,13069,55654
1414,15624,6749
322,1773,2405
3452,15497,52412
6094,30395,61557
1895,19835,7294
1398,9330,20032
1355,7412,25691
2590,15150,22521
1653,4638,34833
247,1344,4637
2752,14192,54130
2922,16569,33365
6182,40785,38354
3055,5665,70176
4603,39608,42859
921,1889,20982
1448,13247,16417
34,266,119
766,1951,16959
3246,16417,31935
2201,20341,8038
3437,13299,59650
2849,15909,29306
3525,24676,23992
1031,6883,18364
4465,17812,83904
2669,17766,17533
5233,31242,87115
3429,23137,44868
8846,62152,81594
1339,10674,14055
12344,77488,79170
10486,65370,91810
4472,12443,94935
698,2789,14555
5204,39764,51280
1253,10547,19467
1309,5269,27234
22,195,171
6976,42496,66301
6515,43955,60130
1789,7044,29431
4403,25385,54097
10406,80994,58821
4789,14570,98775
2646,19739,43754
1806,7861,37170
2655,23113,19370
7541,45117,93459
3103,10062,58853
5148,22542,86146
4728,32244,39981
3713,20836,46951
6294,29346,82492
2311,8411,42703
8365,59794,49460
5938,30227,93170
4359,21140,65836
3695,16070,75649
2064,9884,35130
6967,26398,103863
9,26,83
3407,25671,37051
5741,31757,55188
2861,9735,54652
8537,65240,57726
3283,21696,41966
4171,20772,72327
2245,16109,17080
3048,20911,30594
751,4454,14001
109,651,916
1663,5257,36186
5760,35988,87319
5905,38939,41151
3023,13028,42504
20,80,168
5386,23325,63442
2716,18231,35247
4330,14725,78851
5105,38822,51126
1753,12608,22136
3165,20705,28237
3444,24794,30111
2399,19020,27040
14,65,101
4118,27829,43299
4864,25406,65034
3715,19457,58290
7884,46138,91962
3587,20207,53271
10058,42339,133101
1606,4407,35551
4829,35526,37036
215,1602,2323
14,55,163
6344,29981,88895
5235,20374,94842
3837,14611,60984
4681,18988,85377
7090,44110,94847
2326,6939,40794
10681,62498,102450
1353,5276,27761
7548,18784,124462
5233,42959,34777
8689,53486,45855
1360,7456,26250
1790,12798,18888
2721,15869,39543
9278,41327,130985
7443,53651,72432
1494,9041,5750
2118,7650,41349
4212,20344,79070
1289,10046,14818
2824,7652,62758
11967,73114,101692
702,2482,14834
1352,10502,17542
3113,20260,30879
9261,49916,115469
7213,45264,76126
9586,60971,95791
3508,16388,41738
1700,13723,8485
529,4307,8668
1355,11398,11794
3639,12951,73580
5,7,33
3794,27563,23049
4087,23843,33459
10330,68813,81809
363,1205,7314
6707,57228,30207
2519,10997,36261
30,78,306
5602,39877,43308
13,25,147
19,163,129
3036,23882,28530
1523,9696,21119
1243,7431,12795
5329,24632,64257
1320,6600,26224
369,2192,5732
4173,18223,77701
5488,24369,40122
2734,17903,44840
4418,30194,48664
4482,30191,35208
3537,29863,32890
4039,21231,52812
11974,56222,117004
11268,47812,160901
4045,23009,62459
8300,31147,101735
262,2086,2989
4876,26556,76704
8022,49641,88238
4544,28999,63477
3085,8884,67750
5247,27877,56216
17,77,157
3898,27704,43268
3212,20876,46004
2170,15128,20558
3829,26490,47759
13486,64661,151435
8793,44168,106267
1341,14237,14756
2432,16534,33932
5959,19016,109119
12935,69939,103982
52,255,735
1344,2991,30443
10137,49724,106089
13,34,138
3976,24665,28112
35,166,377
1440,5816,29882
7604,43239,77422
3543,15205,55459
2172,14386,15708
4291,26440,50598
2609,7829,57276
15838,91062,131376
6378,45093,34587
2080,7366,38424
5204,31423,81241
24,125,201
1298,12243,20009
15344,89430,124948
5544,18678,87918
1330,10507,22460
312,3143,2196
3302,11760,70695
10,42,82
5727,31778,63969
6410,28270,93093
118,1127,1167
626,2800,12740
7437,54086,91485
2335,8357,49934
4511,29153,64097
5024,30650,64038
103,400,2003
3276,9201,72377
1753,13998,18659
1700,6491,35735
5617,38807,46313
4967,33270,59096
2956,22401,46474
34,227,237
2414,13110,42150
3759,22527,63220
22,86,266
3839,26972,54019
9157,42800,149255
7370,32767,99345
2933,28432,37507
