Initialize SIGNATURE TABLE
ST_SET: 1
ST_WAY: 256
ST_TAG_BIT: 16
ST_TAG_MASK: ffff

Initialize PATTERN TABLE
PT_SET: 512
PT_WAY: 4
SIG_DELTA_BIT: 7
C_SIG_BIT: 4
C_DELTA_BIT: 4

Initialize PREFETCH FILTER
FILTER_SET: 1024

*** ChampSim Multicore Out-of-Order Simulator ***

Warmup Instructions: 50000000
Simulation Instructions: 50000000
Number of CPUs: 1
LLC sets: 2048
LLC ways: 16
Off-chip DRAM Size: 4096 MB Channels: 1 Width: 64-bit Data Rate: 3200 MT/s

CPU 0 runs /ChampSim-master-BTBX/dpc3_traces/server_032.champsimtrace.xz
Basic BTB sets: 4096 ways: 4 indirect buffer size: 4096 RAS size: 64
CPU 0 L1D next line prefetcher
Heartbeat CPU 0 instructions: 10000002 cycles: 3527397 heartbeat IPC: 2.83495 cumulative IPC: 2.83495 (Simulation time: 0 hr 0 min 19 sec) 
Heartbeat CPU 0 instructions: 20000003 cycles: 7055391 heartbeat IPC: 2.83447 cumulative IPC: 2.83471 (Simulation time: 0 hr 0 min 37 sec) 
Heartbeat CPU 0 instructions: 30000000 cycles: 10583399 heartbeat IPC: 2.83446 cumulative IPC: 2.83463 (Simulation time: 0 hr 0 min 55 sec) 
Heartbeat CPU 0 instructions: 40000003 cycles: 14112595 heartbeat IPC: 2.83351 cumulative IPC: 2.83435 (Simulation time: 0 hr 1 min 14 sec) 
Heartbeat CPU 0 instructions: 50000000 cycles: 17640491 heartbeat IPC: 2.83455 cumulative IPC: 2.83439 (Simulation time: 0 hr 1 min 32 sec) 

Warmup complete CPU 0 instructions: 50000004 cycles: 17640492 (Simulation time: 0 hr 1 min 32 sec) 

Heartbeat CPU 0 instructions: 60000002 cycles: 30483648 heartbeat IPC: 0.778625 cumulative IPC: 0.778625 (Simulation time: 0 hr 1 min 50 sec) 
Heartbeat CPU 0 instructions: 70000001 cycles: 43322359 heartbeat IPC: 0.778894 cumulative IPC: 0.778759 (Simulation time: 0 hr 2 min 7 sec) 
*** Reached end of trace for Core: 0 Repeating trace: /ChampSim-master-BTBX/dpc3_traces/server_032.champsimtrace.xz
Heartbeat CPU 0 instructions: 80000003 cycles: 56154496 heartbeat IPC: 0.779294 cumulative IPC: 0.778937 (Simulation time: 0 hr 2 min 25 sec) 
Heartbeat CPU 0 instructions: 90000002 cycles: 68962778 heartbeat IPC: 0.780745 cumulative IPC: 0.779388 (Simulation time: 0 hr 2 min 43 sec) 
Heartbeat CPU 0 instructions: 100000001 cycles: 81777616 heartbeat IPC: 0.780345 cumulative IPC: 0.77958 (Simulation time: 0 hr 3 min 0 sec) 
Finished CPU 0 instructions: 50000002 cycles: 64137136 cumulative IPC: 0.77958 (Simulation time: 0 hr 3 min 0 sec) 

ChampSim completed all CPUs

Region of Interest Statistics

CPU 0
XXX cumulative-IPC 0.77958
XXX instructions 50000002
XXX cycles 64137136
L1D TOTAL     ACCESS:   22525117  HIT:   20691803  MISS:    1833314
L1D LOAD      ACCESS:    8044800  HIT:    7265334  MISS:     779466
L1D RFO       ACCESS:    6683842  HIT:    6389460  MISS:     294382
L1D PREFETCH  ACCESS:    7796475  HIT:    7037009  MISS:     759466
L1D WRITEBACK ACCESS:          0  HIT:          0  MISS:          0
L1D PREFETCH  REQUESTED:    8098153  ISSUED:    7990702
XXX L1D-USEFUL 186110
XXX L1D-USELESS 573355
L1D AVERAGE MISS LATENCY: 19.8096 cycles
L1I TOTAL     ACCESS:   13956391  HIT:   10068584  MISS:    3887807
L1I LOAD      ACCESS:    9187203  HIT:    7053627  MISS:    2133576
L1I RFO       ACCESS:          0  HIT:          0  MISS:          0
L1I PREFETCH  ACCESS:    4769188  HIT:    3014957  MISS:    1754231
L1I WRITEBACK ACCESS:          0  HIT:          0  MISS:          0
L1I PREFETCH  REQUESTED:    8039810  ISSUED:    8039810
XXX L1I-USEFUL 1100780
XXX L1I-USELESS 653460
L1I AVERAGE MISS LATENCY: 12.907 cycles
L2C TOTAL     ACCESS:    8246751  HIT:    7290146  MISS:     956605
L2C LOAD      ACCESS:    1846144  HIT:    1597101  MISS:     249043
L2C RFO       ACCESS:     291232  HIT:     233782  MISS:      57450
L2C PREFETCH  ACCESS:    5472878  HIT:    4826590  MISS:     646288
L2C WRITEBACK ACCESS:     636497  HIT:     632673  MISS:       3824
L2C PREFETCH  REQUESTED:    5706873  ISSUED:    5705774
XXX L2C-USEFUL 23093
XXX L2C-USELESS 622679
L2C AVERAGE MISS LATENCY: 32.8329 cycles
LLC TOTAL     ACCESS:    2302984  HIT:    2297229  MISS:       5755
LLC LOAD      ACCESS:     249035  HIT:     248565  MISS:        470
LLC RFO       ACCESS:      57450  HIT:      57449  MISS:          1
LLC PREFETCH  ACCESS:    1882838  HIT:    1877572  MISS:       5266
LLC WRITEBACK ACCESS:     113661  HIT:     113643  MISS:         18
LLC PREFETCH  REQUESTED:          0  ISSUED:          0
XXX LLC-USEFUL 398
XXX LLC-USELESS 1693
LLC AVERAGE MISS LATENCY: 146.52 cycles
Major fault: 0 Minor fault: 1183
XXX disp-0 2585080
XXX disp-1 0
XXX disp-2 1745
XXX disp-3 383176
XXX disp-4 1144671
XXX disp-5 1139477
XXX disp-6 885226
XXX disp-7 778059
XXX disp-8 586556
XXX disp-9 436828
XXX disp-10 282566
XXX disp-11 255379
XXX disp-12 116954
XXX disp-13 172938
XXX disp-14 141383
XXX disp-15 179813
XXX disp-16 94385
XXX disp-17 47261
XXX disp-18 172963
XXX disp-19 104723
XXX disp-20 134376
XXX disp-21 330123
XXX disp-22 186706
XXX disp-23 470228
XXX disp-24 83766
XXX disp-25 0
XXX disp-26 0
XXX disp-27 0
XXX disp-28 0
XXX disp-29 0
XXX disp-30 0
XXX disp-31 0
XXX disp-32 0
XXX disp-33 0
XXX disp-34 0
XXX disp-35 0
XXX disp-36 0
XXX disp-37 0
XXX disp-38 0
XXX disp-39 0
XXX disp-40 0
XXX disp-41 0
XXX disp-42 0
XXX disp-43 0
XXX disp-44 0
XXX disp-45 0
XXX disp-46 251824
XXX disp-47 0
XXX disp-48 0
XXX disp-49 0
XXX disp-50 0
XXX disp-51 0
XXX disp-52 0
XXX disp-53 0
XXX disp-54 0
XXX disp-55 0
XXX disp-56 0
XXX disp-57 0
XXX disp-58 0
XXX disp-59 0
XXX disp-60 0
XXX disp-61 0
XXX disp-62 0
XXX disp-63 0
XXX disp-64 0
XXX disp-65 0
XXX diffBits-0 2585080
XXX diffBits-1 1745
XXX diffBits-2 157033
XXX diffBits-3 621133
XXX diffBits-4 773230
XXX diffBits-5 856848
XXX diffBits-6 874155
XXX diffBits-7 609601
XXX diffBits-8 552540
XXX diffBits-9 645928
XXX diffBits-10 303659
XXX diffBits-11 286533
XXX diffBits-12 216537
XXX diffBits-13 184964
XXX diffBits-14 101279
XXX diffBits-15 132689
XXX diffBits-16 151845
XXX diffBits-17 120676
XXX diffBits-18 75050
XXX diffBits-19 171207
XXX diffBits-20 265431
XXX diffBits-21 291770
XXX diffBits-22 533034
XXX diffBits-23 0
XXX diffBits-24 0
XXX diffBits-25 202415
XXX diffBits-26 0
XXX diffBits-27 0
XXX diffBits-28 0
XXX diffBits-29 0
XXX diffBits-30 0
XXX diffBits-31 0
XXX diffBits-32 0
XXX diffBits-33 0
XXX diffBits-34 0
XXX diffBits-35 0
XXX diffBits-36 0
XXX diffBits-37 0
XXX diffBits-38 0
XXX diffBits-39 0
XXX diffBits-40 0
XXX diffBits-41 0
XXX diffBits-42 0
XXX diffBits-43 0
XXX diffBits-44 0
XXX diffBits-45 251824
XXX diffBits-46 0
XXX diffBits-47 0
XXX diffBits-48 0
XXX diffBits-49 0
XXX diffBits-50 0
XXX diffBits-51 0
XXX diffBits-52 0
XXX diffBits-53 0
XXX diffBits-54 0
XXX diffBits-55 0
XXX diffBits-56 0
XXX diffBits-57 0
XXX diffBits-58 0
XXX diffBits-59 0
XXX diffBits-60 0
XXX diffBits-61 0
XXX diffBits-62 0
XXX diffBits-63 0
XXX diffBits-64 0
XXX diffBits-65 0
CPU 0 L1D next line prefetcher final stats

DRAM Statistics
 CHANNEL 0
 RQ ROW_BUFFER_HIT:       1510  ROW_BUFFER_MISS:       4227
 DBUS_CONGESTED:        703
 WQ ROW_BUFFER_HIT:          0  ROW_BUFFER_MISS:         16  FULL:          0

 AVG_CONGESTED_CYCLE: 4

CPU 0 Branch Prediction Accuracy: 85.4424% MPKI: 27.0007 Average ROB Occupancy at Mispredict: 50.8441

XXX total_mispredicts 1350033
XXX total_target_mispredicts1 1073228
XXX total_target_mispredicts2 267169
XXX total_direction_mispredicts 9636
XXX mispredict_on_btb_hit 261751
XXX NOT_BRANCH: 0
XXX BRANCH_DIRECT_JUMP: 0
XXX BRANCH_INDIRECT: 15963
XXX BRANCH_CONDITIONAL: 0
XXX BRANCH_DIRECT_CALL: 0
XXX BRANCH_INDIRECT_CALL: 13097
XXX BRANCH_RETURN: 232691
XXX BRANCH_OTHER: 0
Branch types
NOT_BRANCH: 40725929 81.4519%
BRANCH_DIRECT_JUMP: 508368 1.01674%
BRANCH_INDIRECT: 180051 0.360102%
BRANCH_CONDITIONAL: 5999625 11.9992%
BRANCH_DIRECT_CALL: 1086730 2.17346%
BRANCH_INDIRECT_CALL: 206109 0.412218%
BRANCH_RETURN: 1292826 2.58565%
BRANCH_OTHER: 0 0%

XXX BTB_reads: 16211203
XXX BTB_writes: 1078646
XXX PageBTB_reads: 0
XXX PageBTB_writes: 0
XXX PageBTB_readsBeforeWrite: 0
XXX RegionBTB_reads: 0
XXX RegionBTB_writes: 0
XXX RegionBTB_readsBeforeWrite: 0
XXX BTB_4D_Hits 745750
XXX BTB_6D_Hits 783934
XXX BTB_8D_Hits 736859
XXX BTB_12D_Hits 332159
XXX BTB_18D_Hits 275148
XXX BTB_25D_Hits 215858
XXX BTB_46D_Hits 73833
XXX BTB_Ret_Hits 1240709
XXX BTB_4D_Misses 30820
XXX BTB_6D_Misses 24294
XXX BTB_8D_Misses 96748
XXX BTB_12D_Misses 127569
XXX BTB_18D_Misses 86683
XXX BTB_25D_Misses 233139
XXX BTB_46D_Misses 427276
XXX BTB_Ret_Misses 52117
XXX Num_unique_branches 6346
total instructions: 0
wc,tif,trb
5268,29785,101829
24,176,162
22,46,366
98,933,1127
9,22,119
8,29,51
3495,22691,43652
6984,24445,129169
7514,74047,72180
6982,54670,73297
338,4098,3242
6992,31551,122222
5,25,69
11,28,123
5,6,61
7,3,68
228,2553,3027
6,9,52
5237,19199,111682
5,14,32
3496,24446,62852
5,10,45
3496,22691,64617
3492,12212,75024
5229,20902,109717
13446,85906,124460
12,85,71
3493,13958,73253
3494,19196,68085
3,9,32
5239,22250,108625
2,4,12
14,50,136
6,12,52
3585,17688,71857
7,25,46
3496,10477,76803
2058,7190,44174
3495,13970,73331
777,1937,17461
5,17,43
7,18,37
8,18,62
7,19,75
7,18,43
6,16,35
8,24,56
5240,15716,115170
3495,5250,82026
15,49,224
85,673,1188
3834,32209,61493
9923,67339,123122
4,11,5
5,10,40
6998,34965,139703
3493,20935,66329
5,13,40
5244,41887,73359
6,5,39
2,0,11
13959,43622,172717
8,29,51
3,0,32
8,32,48
10483,73310,111673
3492,13959,73275
5,12,59
10415,44879,104454
7,27,49
5,7,28
5238,47104,68044
3493,13961,73291
7,11,60
3410,11934,73210
5,7,29
5018,25707,90520
3412,15345,69887
3497,31418,55887
3520,21009,45623
5,23,48
6,9,41
3494,10480,76780
4,5,11
8731,50499,141596
4,2,22
2,1,11
14545,54111,183810
13660,87949,112305
8,38,42
9732,78666,77083
5,5,55
3495,13966,73330
5,6,54
3511,15832,71688
14,77,135
6983,59313,94214
8,43,37
7257,35718,124692
7,26,89
4,1,50
5627,45205,82443
3491,5232,81964
13765,111069,72486
3,4,37
3,3,10
12218,71544,134377
3496,34899,52381
3490,24419,62784
8,20,60
5238,29664,101223
8787,68256,129451
13,56,204
7,17,56
8,44,36
8,21,59
11,31,222
9,61,44
4,6,54
12216,88973,109065
7,20,55
3195,35039,44638
3496,15724,71570
19,104,181
5,2,42
5,6,33
5,11,53
7,41,103
6963,34831,139121
6,22,24
7,18,37
9160,95043,44515
5678,83611,41003
3412,10228,75005
2,1,8
227,782,4787
6,15,47
5,14,55
8,26,54
8,27,53
226,1335,4230
92,586,1161
8,20,60
3496,6994,80302
7,18,37
5231,29652,85348
3,2,7
8,24,56
30,276,202
3497,19215,68090
9598,57651,136947
15691,95887,156860
2,1,8
5,28,43
6,7,45
2,4,21
3521,21119,66474
4,7,28
2894,14456,57766
29,206,265
342,2175,3789
4,5,46
6,17,47
11395,44684,145953
21,97,162
5,16,50
7,43,108
5,14,50
8,42,38
7,25,36
7,33,42
3494,12229,75067
26,200,187
2,4,12
5,7,43
8,49,31
3492,8728,78517
5,11,48
2,0,25
6983,45374,108194
7,37,18
7,25,83
2,1,6
6,16,34
5241,36611,78504
7,21,50
8,19,61
10,40,84
6982,29662,123889
8723,50586,146530
12,18,223
14378,85056,135492
9536,70187,100692
4,6,39
6,14,50
5,1,30
8,41,39
7,16,64
6986,66307,38419
8,30,50
6,18,26
3493,34893,52365
6,12,24
6,19,31
5,5,59
6,23,13
6,11,55
12,24,116
7,18,37
13976,116366,85539
5,10,33
4,12,18
11,61,148
6,13,35
3499,10502,76859
2337,18648,25695
8729,76769,62808
4,11,49
5,9,44
2,3,22
7,22,53
5,11,18
6,11,39
3494,10483,76788
3,1,19
1172,11078,18080
5,9,16
6985,29670,123907
3490,8720,78485
2285,19371,37541
4,6,47
3,5,4
12216,85469,111679
3719,12605,80275
3501,13990,73412
3510,12295,75218
3495,13966,73319
4347,46711,53330
3,4,27
5237,10470,120408
7,29,40
5,5,63
7,13,48
4,15,49
8727,80245,85480
6984,47122,78546
8749,50692,115165
2,13,31
6111,64496,72465
4218,29697,75669
4,14,34
5,21,50
5,28,36
12215,57580,143082
4,6,39
3495,13989,73266
10468,59326,125600
4017,30861,41504
4,6,34
3492,5236,82004
3493,13961,73296
88,302,1839
5,10,46
7,19,56
6983,47108,57602
3496,15714,71580
1,0,7
5579,16874,119119
3482,41729,45201
5,6,19
3,0,24
3503,12241,75201
5,20,49
5,5,44
3498,17484,69840
3984,46328,41146
5212,19088,111151
8,27,53
8,29,51
5245,33166,87440
4267,21353,70108
6,11,25
8,20,60
3493,6981,80287
2,5,20
3,6,21
13960,59320,164017
3495,24450,62819
15706,49734,181480
8,46,34
3496,24433,62847
8,49,31
10,39,71
6878,36119,86540
11,35,98
4,10,6
5238,47111,68062
7,21,40
7,14,61
5,17,51
5,21,32
3496,19192,68100
6,9,42
8,32,48
8,9,71
5253,64257,51058
6,7,29
4143,33078,57912
6,18,43
18,75,163
17,90,158
8,44,36
3491,8722,78494
318,3715,4066
13,100,130
5,14,41
6985,33161,120410
7000,57709,68163
3492,27912,59357
3494,17455,69801
9325,79160,87815
14,53,199
16551,120680,81634
19193,93049,150032
3494,6984,80298
2,5,20
8716,108379,30829
8,33,47
1270,5062,26590
6,22,54
13982,107832,136904
4952,38642,76267
6622,38319,107271
3496,36629,50597
12221,98578,88997
3551,9102,79247
6982,52336,101204
7,18,99
8,42,38
3528,38562,49128
19,71,273
12220,68050,167537
13963,78560,95971
8,15,65
3494,13963,73291
7,10,65
9870,88982,96343
5242,22706,108254
3492,27922,59354
3650,19825,71321
3518,48949,38597
6992,41929,111809
5,8,51
2332,22827,19802
16871,87518,131469
6772,18989,130541
8047,76050,69605
8007,75643,71610
3496,12231,75063
7,18,43
3498,27933,59364
5,13,40
7,22,33
7,10,59
6991,34952,118747
18322,111997,122793
226,670,4890
12,110,148
3500,5292,82088
3487,15675,71395
5356,30231,102122
2177,18441,35822
11,69,100
4,11,21
8,38,42
6,23,37
3487,19164,67903
5,11,38
6017,57528,77448
3495,20941,66328
12219,78200,122503
8,39,87
7843,36886,132773
5,10,47
6,18,53
7,16,53
5,10,50
5348,30811,86792
6986,33170,120426
3498,12442,74887
6982,13960,139560
11345,60207,168400
8,33,72
22236,115564,178184
3496,12234,75071
10476,26227,165808
8727,80231,59319
17448,71592,83755
3492,19198,68051
10,32,98
11010,76817,108848
17462,62955,237487
6996,71533,82153
8,34,46
3497,17468,69837
5249,19235,111783
8,29,51
3499,12240,75113
20114,103434,168819
8,19,106
10,38,80
3471,32743,53516
8746,67158,130172
15655,72622,162309
19194,83746,218083
9,47,78
34,264,206
4,13,38
22,129,162
3631,12411,77445
5,7,33
8,49,31
78,747,807
13960,90744,132594
6,10,50
8,60,20
3495,31402,55885
6,9,62
13871,79565,126340
5,5,51
5,10,54
12215,91148,109924
7,25,50
7,27,48
3497,26200,61105
4,8,33
11,47,122
5239,17460,113401
3495,27926,59354
3552,31894,56450
8740,63690,99573
10497,75124,92420
5243,59275,55954
6,13,54
20863,99222,194057
10232,55624,180506
6982,40128,113424
9143,38373,111713
19,107,223
3502,17487,69907
10533,73314,131307
10475,52360,157096
5240,13974,116936
2457,18246,41871
6,9,43
5244,68066,47149
2231,4462,51218
10144,61415,114281
8731,65248,97981
20940,122141,212863
6020,32512,102112
4,4,17
8,23,57
5241,10488,120417
24216,136146,195104
3,4,5
5235,15700,115150
7,11,50
3,14,35
7,23,57
12,40,160
3492,13958,73283
10474,64554,127388
5,10,46
11,66,83
5246,36673,78589
3493,10477,76778
18675,110937,181194
12251,95850,83875
226,1012,4540
8729,48857,148350
6,9,56
2953,28013,45727
21219,130334,112259
3496,26184,61108
5,10,54
8,49,31
4849,17255,103911
3,1,15
6028,37233,96655
10474,52357,139615
8,18,62
5235,33136,81999
10474,55866,136104
3492,17450,69819
5,17,45
3499,8799,57656
8,20,118
3493,5235,82024
148,1599,1722
5,10,35
7,17,38
3507,33226,54213
6,30,30
5,9,33
7,23,77
6979,48853,104664
3,3,41
7461,54402,104407
3512,29742,57867
10584,50935,143774
13,82,156
