Initialize SIGNATURE TABLE
ST_SET: 1
ST_WAY: 256
ST_TAG_BIT: 16
ST_TAG_MASK: ffff

Initialize PATTERN TABLE
PT_SET: 512
PT_WAY: 4
SIG_DELTA_BIT: 7
C_SIG_BIT: 4
C_DELTA_BIT: 4

Initialize PREFETCH FILTER
FILTER_SET: 1024

*** ChampSim Multicore Out-of-Order Simulator ***

Warmup Instructions: 50000000
Simulation Instructions: 50000000
Number of CPUs: 1
LLC sets: 2048
LLC ways: 16
Off-chip DRAM Size: 4096 MB Channels: 1 Width: 64-bit Data Rate: 3200 MT/s

CPU 0 runs /ChampSim-master-BTBX/dpc3_traces/server_026.champsimtrace.xz
Basic BTB sets: 4096 ways: 4 indirect buffer size: 4096 RAS size: 64
CPU 0 L1D next line prefetcher
Heartbeat CPU 0 instructions: 10000000 cycles: 3526313 heartbeat IPC: 2.83582 cumulative IPC: 2.83582 (Simulation time: 0 hr 0 min 18 sec) 
Heartbeat CPU 0 instructions: 20000002 cycles: 7058333 heartbeat IPC: 2.83124 cumulative IPC: 2.83353 (Simulation time: 0 hr 0 min 36 sec) 
Heartbeat CPU 0 instructions: 30000000 cycles: 10580399 heartbeat IPC: 2.83924 cumulative IPC: 2.83543 (Simulation time: 0 hr 0 min 54 sec) 
Heartbeat CPU 0 instructions: 40000003 cycles: 14111061 heartbeat IPC: 2.83233 cumulative IPC: 2.83466 (Simulation time: 0 hr 1 min 12 sec) 
Heartbeat CPU 0 instructions: 50000000 cycles: 17635140 heartbeat IPC: 2.83762 cumulative IPC: 2.83525 (Simulation time: 0 hr 1 min 30 sec) 

Warmup complete CPU 0 instructions: 50000004 cycles: 17635141 (Simulation time: 0 hr 1 min 30 sec) 

*** Reached end of trace for Core: 0 Repeating trace: /ChampSim-master-BTBX/dpc3_traces/server_026.champsimtrace.xz
Heartbeat CPU 0 instructions: 60000000 cycles: 30690156 heartbeat IPC: 0.765989 cumulative IPC: 0.765989 (Simulation time: 0 hr 1 min 48 sec) 
Heartbeat CPU 0 instructions: 70000001 cycles: 43614366 heartbeat IPC: 0.773742 cumulative IPC: 0.769846 (Simulation time: 0 hr 2 min 5 sec) 
Heartbeat CPU 0 instructions: 80000003 cycles: 56668740 heartbeat IPC: 0.766027 cumulative IPC: 0.768569 (Simulation time: 0 hr 2 min 23 sec) 
Heartbeat CPU 0 instructions: 90000002 cycles: 69611888 heartbeat IPC: 0.772609 cumulative IPC: 0.769575 (Simulation time: 0 hr 2 min 40 sec) 
Heartbeat CPU 0 instructions: 100000000 cycles: 82635955 heartbeat IPC: 0.767809 cumulative IPC: 0.769221 (Simulation time: 0 hr 2 min 58 sec) 
Finished CPU 0 instructions: 50000000 cycles: 65000815 cumulative IPC: 0.769221 (Simulation time: 0 hr 2 min 58 sec) 

ChampSim completed all CPUs

Region of Interest Statistics

CPU 0
XXX cumulative-IPC 0.769221
XXX instructions 50000000
XXX cycles 65000815
L1D TOTAL     ACCESS:   22205939  HIT:   20557750  MISS:    1648189
L1D LOAD      ACCESS:    8093229  HIT:    7375223  MISS:     718006
L1D RFO       ACCESS:    6347567  HIT:    6062171  MISS:     285396
L1D PREFETCH  ACCESS:    7765143  HIT:    7120356  MISS:     644787
L1D WRITEBACK ACCESS:          0  HIT:          0  MISS:          0
L1D PREFETCH  REQUESTED:    8144753  ISSUED:    8015487
XXX L1D-USEFUL 164464
XXX L1D-USELESS 480335
L1D AVERAGE MISS LATENCY: 24.769 cycles
L1I TOTAL     ACCESS:   13491779  HIT:   10136531  MISS:    3355248
L1I LOAD      ACCESS:    9046616  HIT:    7235289  MISS:    1811327
L1I RFO       ACCESS:          0  HIT:          0  MISS:          0
L1I PREFETCH  ACCESS:    4445163  HIT:    2901242  MISS:    1543921
L1I WRITEBACK ACCESS:          0  HIT:          0  MISS:          0
L1I PREFETCH  REQUESTED:    7251205  ISSUED:    7251205
XXX L1I-USEFUL 986774
XXX L1I-USELESS 557152
L1I AVERAGE MISS LATENCY: 13.2956 cycles
L2C TOTAL     ACCESS:    6988434  HIT:    5765011  MISS:    1223423
L2C LOAD      ACCESS:    1417229  HIT:    1139476  MISS:     277753
L2C RFO       ACCESS:     282807  HIT:     171788  MISS:     111019
L2C PREFETCH  ACCESS:    4727099  HIT:    3896752  MISS:     830347
L2C WRITEBACK ACCESS:     561299  HIT:     556995  MISS:       4304
L2C PREFETCH  REQUESTED:    4731818  ISSUED:    4731296
XXX L2C-USEFUL 73252
XXX L2C-USELESS 755513
L2C AVERAGE MISS LATENCY: 35.9803 cycles
LLC TOTAL     ACCESS:    2490710  HIT:    2456075  MISS:      34635
LLC LOAD      ACCESS:     277604  HIT:     274145  MISS:       3459
LLC RFO       ACCESS:     111005  HIT:      96400  MISS:      14605
LLC PREFETCH  ACCESS:    1905137  HIT:    1888714  MISS:      16423
LLC WRITEBACK ACCESS:     196964  HIT:     196816  MISS:        148
LLC PREFETCH  REQUESTED:          0  ISSUED:          0
XXX LLC-USEFUL 1221
XXX LLC-USELESS 15221
LLC AVERAGE MISS LATENCY: 174.389 cycles
Major fault: 0 Minor fault: 2172
XXX disp-0 2209098
XXX disp-1 0
XXX disp-2 1950
XXX disp-3 463385
XXX disp-4 1124497
XXX disp-5 1107854
XXX disp-6 1246685
XXX disp-7 781223
XXX disp-8 592764
XXX disp-9 471209
XXX disp-10 297217
XXX disp-11 212392
XXX disp-12 114951
XXX disp-13 137711
XXX disp-14 123228
XXX disp-15 141072
XXX disp-16 69234
XXX disp-17 65067
XXX disp-18 147164
XXX disp-19 120276
XXX disp-20 134093
XXX disp-21 273952
XXX disp-22 172380
XXX disp-23 358089
XXX disp-24 104557
XXX disp-25 0
XXX disp-26 0
XXX disp-27 0
XXX disp-28 0
XXX disp-29 0
XXX disp-30 0
XXX disp-31 0
XXX disp-32 0
XXX disp-33 0
XXX disp-34 0
XXX disp-35 0
XXX disp-36 0
XXX disp-37 0
XXX disp-38 0
XXX disp-39 0
XXX disp-40 0
XXX disp-41 0
XXX disp-42 0
XXX disp-43 0
XXX disp-44 0
XXX disp-45 0
XXX disp-46 277005
XXX disp-47 0
XXX disp-48 0
XXX disp-49 0
XXX disp-50 0
XXX disp-51 0
XXX disp-52 0
XXX disp-53 0
XXX disp-54 0
XXX disp-55 0
XXX disp-56 0
XXX disp-57 0
XXX disp-58 0
XXX disp-59 0
XXX disp-60 0
XXX disp-61 0
XXX disp-62 0
XXX disp-63 0
XXX disp-64 0
XXX disp-65 0
XXX diffBits-0 2209098
XXX diffBits-1 1446
XXX diffBits-2 175391
XXX diffBits-3 663298
XXX diffBits-4 768913
XXX diffBits-5 899271
XXX diffBits-6 756172
XXX diffBits-7 969937
XXX diffBits-8 595559
XXX diffBits-9 664862
XXX diffBits-10 309083
XXX diffBits-11 304754
XXX diffBits-12 186855
XXX diffBits-13 172803
XXX diffBits-14 68940
XXX diffBits-15 103399
XXX diffBits-16 141562
XXX diffBits-17 107362
XXX diffBits-18 81318
XXX diffBits-19 123172
XXX diffBits-20 289476
XXX diffBits-21 255771
XXX diffBits-22 410785
XXX diffBits-23 0
XXX diffBits-24 0
XXX diffBits-25 210821
XXX diffBits-26 0
XXX diffBits-27 0
XXX diffBits-28 0
XXX diffBits-29 0
XXX diffBits-30 0
XXX diffBits-31 0
XXX diffBits-32 0
XXX diffBits-33 0
XXX diffBits-34 0
XXX diffBits-35 0
XXX diffBits-36 0
XXX diffBits-37 0
XXX diffBits-38 0
XXX diffBits-39 0
XXX diffBits-40 0
XXX diffBits-41 0
XXX diffBits-42 0
XXX diffBits-43 0
XXX diffBits-44 0
XXX diffBits-45 277005
XXX diffBits-46 0
XXX diffBits-47 0
XXX diffBits-48 0
XXX diffBits-49 0
XXX diffBits-50 0
XXX diffBits-51 0
XXX diffBits-52 0
XXX diffBits-53 0
XXX diffBits-54 0
XXX diffBits-55 0
XXX diffBits-56 0
XXX diffBits-57 0
XXX diffBits-58 0
XXX diffBits-59 0
XXX diffBits-60 0
XXX diffBits-61 0
XXX diffBits-62 0
XXX diffBits-63 0
XXX diffBits-64 0
XXX diffBits-65 0
CPU 0 L1D next line prefetcher final stats

DRAM Statistics
 CHANNEL 0
 RQ ROW_BUFFER_HIT:      12027  ROW_BUFFER_MISS:      22447
 DBUS_CONGESTED:      22561
 WQ ROW_BUFFER_HIT:       1515  ROW_BUFFER_MISS:      14577  FULL:          0

 AVG_CONGESTED_CYCLE: 6

CPU 0 Branch Prediction Accuracy: 83.5476% MPKI: 30.1121 Average ROB Occupancy at Mispredict: 48.5956

XXX total_mispredicts 1505607
XXX total_target_mispredicts1 1114280
XXX total_target_mispredicts2 379692
XXX total_direction_mispredicts 11635
XXX mispredict_on_btb_hit 209111
XXX NOT_BRANCH: 0
XXX BRANCH_DIRECT_JUMP: 0
XXX BRANCH_INDIRECT: 16741
XXX BRANCH_CONDITIONAL: 0
XXX BRANCH_DIRECT_CALL: 0
XXX BRANCH_INDIRECT_CALL: 14593
XXX BRANCH_RETURN: 177777
XXX BRANCH_OTHER: 0
Branch types
NOT_BRANCH: 40848408 81.6968%
BRANCH_DIRECT_JUMP: 522043 1.04409%
BRANCH_INDIRECT: 204034 0.408068%
BRANCH_CONDITIONAL: 6212935 12.4259%
BRANCH_DIRECT_CALL: 932385 1.86477%
BRANCH_INDIRECT_CALL: 173762 0.347524%
BRANCH_RETURN: 1106141 2.21228%
BRANCH_OTHER: 0 0%

XXX BTB_reads: 18091308
XXX BTB_writes: 1284861
XXX PageBTB_reads: 0
XXX PageBTB_writes: 0
XXX PageBTB_readsBeforeWrite: 0
XXX RegionBTB_reads: 0
XXX RegionBTB_writes: 0
XXX RegionBTB_readsBeforeWrite: 0
XXX BTB_4D_Hits 748063
XXX BTB_6D_Hits 708993
XXX BTB_8D_Hits 885825
XXX BTB_12D_Hits 279649
XXX BTB_18D_Hits 206445
XXX BTB_25D_Hits 152141
XXX BTB_46D_Hits 83550
XXX BTB_Ret_Hits 1025283
XXX BTB_4D_Misses 56790
XXX BTB_6D_Misses 47081
XXX BTB_8D_Misses 144840
XXX BTB_12D_Misses 154962
XXX BTB_18D_Misses 120371
XXX BTB_25D_Misses 250442
XXX BTB_46D_Misses 429517
XXX BTB_Ret_Misses 80858
XXX Num_unique_branches 10002
total instructions: 0
wc,tif,trb
6039,21207,113754
3375,23143,30994
3017,19649,35041
3107,17955,39250
1524,7106,30866
1446,10454,13639
5457,30140,71939
5321,20905,100498
8531,67874,86760
6212,46867,73047
2651,22081,25296
11344,51432,129074
15,69,200
2174,14643,37921
1056,4358,21440
2554,14220,35184
1524,16545,17157
1012,4044,21136
4729,18971,93171
1066,10942,14656
6128,36368,72842
17,95,230
6676,39218,61200
4442,20406,74363
4848,23804,91136
9873,61503,90448
4007,29648,30435
2884,11529,60451
4913,22462,94230
250,1589,4621
7835,33322,130347
1151,10145,18576
4164,31828,38998
2031,12171,24315
3226,19718,56230
2000,18803,24053
4426,15301,89035
7879,37056,98259
4904,22116,80344
2284,5198,51782
6,19,48
2203,23083,17346
1020,3633,21747
1522,7593,30355
3049,18287,42684
6200,38401,27744
2261,10387,28150
4647,15254,90373
5436,24002,75234
4993,23131,56722
61,458,814
8328,54803,90372
8087,41143,100274
6,17,35
3446,20220,32073
6603,26297,110170
3787,28225,53866
8,16,64
5399,30127,70234
7,16,39
842,1260,19721
10247,39369,124054
6990,45962,87582
4,3,48
2719,15161,39228
8851,52598,84225
8196,36677,88702
1717,13341,26670
6972,45168,66242
4962,26252,55646
2548,12915,44623
4187,37949,57144
2518,13537,42316
3204,23727,28536
1915,8235,39436
2026,19680,24833
7010,30257,104163
4518,21600,63984
4121,21346,72485
8480,40942,105464
1779,18251,20962
2621,22062,32061
6537,22482,127605
3021,28812,21099
5218,30733,84309
7,16,59
2023,7581,36864
9097,45698,112989
6359,40868,58552
2533,19223,23234
7332,48548,58549
2019,4538,39809
3422,13321,65893
3028,14636,40838
4507,21915,82140
4320,25715,44466
5316,21719,84601
5202,39890,39570
9222,39494,131425
4140,17750,48208
2220,4830,44432
7046,30283,95055
1301,1947,30464
14693,80157,118936
1027,3625,21816
1050,3766,22004
11643,84086,118323
5927,35200,89659
4076,20292,72442
9009,62160,84707
3620,17819,72417
9504,61032,120915
1954,10967,32207
8077,36638,74151
477,5894,5911
1182,6059,23059
2019,7557,36825
8964,69181,63784
2055,7628,37155
10476,68363,75209
5165,31061,57882
5443,27112,72634
1917,8624,38897
8241,53532,63607
3027,16118,44337
2040,17951,26625
3627,18220,49724
2199,15005,32472
7072,35641,120736
1737,11666,26353
4037,35170,24211
7439,62462,34541
9583,65843,68774
1652,3441,37753
4,5,40
1743,15021,26840
1017,7074,18239
1517,7103,15680
7221,46713,57298
3092,14764,40890
2125,9460,37444
3965,29475,42654
18,86,188
4523,13079,83848
3604,22114,33422
4388,29856,66110
1015,4071,21184
2146,16539,25271
8189,51556,49740
5768,35668,73468
12413,63228,144199
12335,67603,121895
22,165,229
2890,22550,41263
288,2084,4868
2019,8069,36317
7410,38651,90771
675,4922,11731
5193,22971,79370
3567,28951,39644
588,4189,8157
1003,4488,20487
3779,20116,40629
8426,44186,92924
3085,17914,43307
489,5144,6734
1020,5594,19838
1518,9086,24249
4482,36019,42873
1055,4841,20918
2520,27125,19149
2894,14643,51635
9687,51811,76161
5,13,58
17,59,271
3563,32280,25363
2895,9255,63031
1022,7578,17792
1006,4,25100
6516,29493,91241
1019,5182,19685
2982,20026,46891
5,12,13
1014,3541,21703
9120,55406,92327
2264,20440,21429
1160,8054,11606
2100,23952,21177
4774,21537,86442
6173,33077,104141
15,18,253
9569,56235,89292
9377,49482,89211
6,6,50
2019,10105,34266
4359,30094,26214
5234,36788,36228
4533,27014,45491
5966,52273,39420
1022,7594,17752
1034,3680,21854
5781,31637,70093
16,112,94
3058,22588,30584
2529,15970,40341
1965,20552,19527
1016,2032,23248
2834,17102,27282
7,18,37
10546,79643,62727
1016,4567,20713
14,83,137
506,3791,8577
4692,24818,47030
1899,5723,41572
1742,9431,29684
10759,87566,54981
21,69,252
1016,9606,15674
473,1414,10351
4234,35085,42051
7,15,46
1020,4061,21255
5283,26045,79441
1519,5057,32816
4142,34948,32675
1040,6196,19522
5750,21548,86262
1326,3350,29644
6158,31932,72572
12,35,145
244,972,5044
6469,39406,73049
6992,42879,74761
1026,8133,17442
4214,22171,58404
5103,17764,92569
5933,41900,62520
2762,17285,35738
8374,22802,157706
2028,19691,24705
476,1414,7577
4400,25568,37148
943,8938,9220
9661,66788,73148
2601,9719,20511
8260,39818,82026
1022,6588,18833
3419,35472,40335
5076,27284,93408
1016,4054,21226
3139,14470,32487
2535,12649,27772
9234,42756,114026
496,2637,9544
2758,11056,57648
11603,58834,118668
5005,30988,57848
416,3085,4901
4413,20985,74088
2901,11603,60802
1026,4095,21460
2257,14524,26519
14,50,180
4728,24647,50684
4234,20992,65032
3,0,21
7387,26365,114004
4672,35718,45998
3542,24247,19717
7,23,53
2404,11170,48786
1467,14954,15158
622,2740,8942
7238,39527,88474
3227,25719,36318
3901,13639,77781
3725,21171,50148
2972,18270,24962
4105,18694,76527
4227,20154,73145
859,8585,4366
1643,7242,27210
2898,5803,66527
2027,8606,35931
7,41,39
9058,46107,94561
4413,36364,49549
9568,46995,114800
5026,34486,31029
4553,21670,77149
2490,26047,13255
74,468,510
4255,19497,63299
6474,32263,57330
981,10874,2425
2483,16506,34228
1071,5868,20079
3227,21086,22467
1421,4174,29381
478,2610,9220
2903,15368,57063
3555,19334,35312
5628,38211,36321
2983,6003,68162
5350,42473,50790
1032,2172,23310
2018,19920,20894
33,211,130
1337,4470,28679
4549,21563,45360
2088,22364,6756
4039,17645,68116
3343,17612,31366
5086,40626,42310
1043,4199,21438
5297,23234,97627
3796,24980,24799
4866,27694,82441
4909,28899,66688
9968,71027,87547
2205,17850,21471
15263,99457,82898
12807,77032,108048
4639,12253,97594
1010,4038,21122
9522,69483,67992
1718,14927,27903
1893,7587,39584
58,657,533
9768,58413,98127
8371,53173,77020
4005,21681,55432
5568,39081,61186
11582,89969,68913
4622,13458,97596
3718,28248,60916
1755,7508,36272
3293,28854,23967
7969,50374,93143
4133,11714,73663
7506,40406,108492
6968,46412,56602
4037,21356,49583
6323,32230,81306
2934,10281,62381
11720,67684,75846
6912,30662,110036
5409,24984,80415
4016,18389,81305
2368,14073,32898
8144,32395,116773
7,14,57
5410,38475,50920
9329,50501,85942
3984,13591,76337
9990,77913,65371
5903,36855,59516
4501,24211,79745
2515,19576,13089
3673,26168,39534
1015,6063,19192
33,225,334
1516,4042,33752
7044,45347,103043
10563,67279,66577
4129,15717,58794
10,70,106
7169,25085,83573
3653,16119,55238
6672,30243,105389
4856,35170,51618
2228,16694,27598
2026,14023,29944
4458,33196,40824
2504,19212,28976
1355,11234,19695
4518,29216,47490
5720,32910,68775
3913,24933,63622
9434,54072,108868
3992,22099,55946
12042,49078,155034
1461,4303,31986
4298,30200,34112
46,346,410
6,10,50
7874,36949,105268
5816,24077,103533
4135,14722,69043
5401,21681,96896
8431,51300,112764
2525,15124,41833
16715,85606,140806
2830,10434,45222
12200,26438,173622
6545,51252,41267
12089,80154,60972
1889,10379,36756
3766,28133,47511
5405,32076,68586
12955,49042,168047
8416,58848,84086
2046,12928,7782
2135,7135,41759
5044,22746,96252
1687,13775,20142
3604,12852,74280
15689,88470,127637
1314,5852,23840
1729,13577,22368
4724,31280,49424
10761,56676,133829
9402,54306,99165
12271,73614,122312
3519,16030,37789
2620,20085,13763
1009,8536,16604
2035,16024,17420
4148,15521,80524
6,9,42
4461,30165,24580
5726,34236,45895
13822,85872,107593
1484,8965,25201
5513,46132,24571
5022,21442,63360
1894,12658,34411
10211,67124,79328
8,15,65
8,14,66
7110,43396,63448
2203,15297,28994
1637,9498,17067
5209,34255,58582
1014,5057,20193
722,4282,11448
4687,22570,88283
9260,49101,86835
2858,20447,48081
6666,46471,74109
5781,36494,42154
4345,36294,42863
4744,22986,61380
15625,73937,140326
11581,50525,172206
3961,22715,58878
9198,41346,107231
1526,14211,19265
4635,27132,75202
10162,71098,101929
5487,34971,74340
3832,10653,84875
6530,33254,66843
15,68,113
5086,42182,47536
2840,16395,45999
3463,22883,32396
5121,35936,63827
18343,92363,198096
10470,46995,125791
1529,17379,15958
3483,24229,49172
6640,20108,116680
13572,80004,109216
18,68,262
1979,4468,44921
6808,29462,69578
15,45,207
4100,24404,35907
14,60,170
1898,7581,39794
10686,52977,107528
1526,6602,31338
3030,21169,21749
5764,35477,68817
2896,8686,63644
17618,102046,146512
9203,67075,49658
1168,3222,25858
6536,38298,101786
8,17,63
1878,17772,29029
18443,109944,133794
8350,40678,109140
1024,8090,17291
31,277,312
3704,12926,79593
5,9,30
8282,46256,97388
7896,38660,109610
1633,20440,14503
2934,18635,46139
8116,56196,102993
3164,11775,67273
3559,28801,50719
5443,37279,75161
9,21,124
3409,8499,76570
2102,16286,24478
1518,6057,31773
4875,32470,42540
6610,42256,67796
2952,22358,46048
8,37,43
1775,9867,31371
6200,44864,92870
19,77,234
4448,31894,62828
8429,44916,132433
8148,36545,108843
1064,9883,16537
