Initialize SIGNATURE TABLE
ST_SET: 1
ST_WAY: 256
ST_TAG_BIT: 16
ST_TAG_MASK: ffff

Initialize PATTERN TABLE
PT_SET: 512
PT_WAY: 4
SIG_DELTA_BIT: 7
C_SIG_BIT: 4
C_DELTA_BIT: 4

Initialize PREFETCH FILTER
FILTER_SET: 1024

*** ChampSim Multicore Out-of-Order Simulator ***

Warmup Instructions: 50000000
Simulation Instructions: 50000000
Number of CPUs: 1
LLC sets: 2048
LLC ways: 16
Off-chip DRAM Size: 4096 MB Channels: 1 Width: 64-bit Data Rate: 3200 MT/s

CPU 0 runs /ChampSim-master-BTBX/dpc3_traces/server_036.champsimtrace.xz
Basic BTB sets: 4096 ways: 4 indirect buffer size: 4096 RAS size: 64
CPU 0 L1D next line prefetcher
Heartbeat CPU 0 instructions: 10000000 cycles: 3459080 heartbeat IPC: 2.89094 cumulative IPC: 2.89094 (Simulation time: 0 hr 0 min 17 sec) 
Heartbeat CPU 0 instructions: 20000000 cycles: 6924978 heartbeat IPC: 2.88526 cumulative IPC: 2.8881 (Simulation time: 0 hr 0 min 36 sec) 
Heartbeat CPU 0 instructions: 30000003 cycles: 10433076 heartbeat IPC: 2.85055 cumulative IPC: 2.87547 (Simulation time: 0 hr 0 min 53 sec) 
Heartbeat CPU 0 instructions: 40000000 cycles: 13895624 heartbeat IPC: 2.88805 cumulative IPC: 2.8786 (Simulation time: 0 hr 1 min 11 sec) 
Heartbeat CPU 0 instructions: 50000002 cycles: 17357409 heartbeat IPC: 2.88868 cumulative IPC: 2.88061 (Simulation time: 0 hr 1 min 29 sec) 

Warmup complete CPU 0 instructions: 50000002 cycles: 17357409 (Simulation time: 0 hr 1 min 29 sec) 

Heartbeat CPU 0 instructions: 60000002 cycles: 27500175 heartbeat IPC: 0.985924 cumulative IPC: 0.985924 (Simulation time: 0 hr 1 min 46 sec) 
Heartbeat CPU 0 instructions: 70000001 cycles: 37587184 heartbeat IPC: 0.991374 cumulative IPC: 0.988642 (Simulation time: 0 hr 2 min 2 sec) 
Heartbeat CPU 0 instructions: 80000001 cycles: 47688458 heartbeat IPC: 0.989974 cumulative IPC: 0.989085 (Simulation time: 0 hr 2 min 19 sec) 
Heartbeat CPU 0 instructions: 90000002 cycles: 57775712 heartbeat IPC: 0.99135 cumulative IPC: 0.989651 (Simulation time: 0 hr 2 min 35 sec) 
Heartbeat CPU 0 instructions: 100000000 cycles: 67862975 heartbeat IPC: 0.991349 cumulative IPC: 0.98999 (Simulation time: 0 hr 2 min 51 sec) 
Finished CPU 0 instructions: 50000002 cycles: 50505573 cumulative IPC: 0.98999 (Simulation time: 0 hr 2 min 51 sec) 

ChampSim completed all CPUs

Region of Interest Statistics

CPU 0
XXX cumulative-IPC 0.98999
XXX instructions 50000002
XXX cycles 50505573
L1D TOTAL     ACCESS:   22662948  HIT:   22602576  MISS:      60372
L1D LOAD      ACCESS:    7700017  HIT:    7665066  MISS:      34951
L1D RFO       ACCESS:    7428858  HIT:    7421595  MISS:       7263
L1D PREFETCH  ACCESS:    7534073  HIT:    7515915  MISS:      18158
L1D WRITEBACK ACCESS:          0  HIT:          0  MISS:          0
L1D PREFETCH  REQUESTED:    7701862  ISSUED:    7575614
XXX L1D-USEFUL 5529
XXX L1D-USELESS 12630
L1D AVERAGE MISS LATENCY: 17.1323 cycles
L1I TOTAL     ACCESS:   13685381  HIT:    9027544  MISS:    4657837
L1I LOAD      ACCESS:    9010845  HIT:    6240966  MISS:    2769879
L1I RFO       ACCESS:          0  HIT:          0  MISS:          0
L1I PREFETCH  ACCESS:    4674536  HIT:    2786578  MISS:    1887958
L1I WRITEBACK ACCESS:          0  HIT:          0  MISS:          0
L1I PREFETCH  REQUESTED:    8798085  ISSUED:    8798085
XXX L1I-USEFUL 1180568
XXX L1I-USELESS 707406
L1I AVERAGE MISS LATENCY: 13.1411 cycles
L2C TOTAL     ACCESS:    7351138  HIT:    7348937  MISS:       2201
L2C LOAD      ACCESS:    2533646  HIT:    2533363  MISS:        283
L2C RFO       ACCESS:       7262  HIT:       7209  MISS:         53
L2C PREFETCH  ACCESS:    4794589  HIT:    4792734  MISS:       1855
L2C WRITEBACK ACCESS:      15641  HIT:      15631  MISS:         10
L2C PREFETCH  REQUESTED:    6194870  ISSUED:    6194867
XXX L2C-USEFUL 345
XXX L2C-USELESS 937
L2C AVERAGE MISS LATENCY: 120.373 cycles
LLC TOTAL     ACCESS:     784154  HIT:     781456  MISS:       2698
LLC LOAD      ACCESS:        283  HIT:        119  MISS:        164
LLC RFO       ACCESS:         53  HIT:         17  MISS:         36
LLC PREFETCH  ACCESS:     782923  HIT:     780442  MISS:       2481
LLC WRITEBACK ACCESS:        895  HIT:        878  MISS:         17
LLC PREFETCH  REQUESTED:          0  ISSUED:          0
XXX LLC-USEFUL 54
XXX LLC-USELESS 639
LLC AVERAGE MISS LATENCY: 198.643 cycles
Major fault: 0 Minor fault: 1929
XXX disp-0 2180401
XXX disp-1 0
XXX disp-2 11
XXX disp-3 252577
XXX disp-4 844415
XXX disp-5 503143
XXX disp-6 1362459
XXX disp-7 625689
XXX disp-8 766212
XXX disp-9 544762
XXX disp-10 410638
XXX disp-11 244834
XXX disp-12 139988
XXX disp-13 132006
XXX disp-14 158264
XXX disp-15 76883
XXX disp-16 183439
XXX disp-17 88761
XXX disp-18 375164
XXX disp-19 88711
XXX disp-20 167805
XXX disp-21 38128
XXX disp-22 17339
XXX disp-23 301638
XXX disp-24 0
XXX disp-25 0
XXX disp-26 0
XXX disp-27 0
XXX disp-28 0
XXX disp-29 0
XXX disp-30 0
XXX disp-31 0
XXX disp-32 0
XXX disp-33 0
XXX disp-34 0
XXX disp-35 0
XXX disp-36 0
XXX disp-37 0
XXX disp-38 0
XXX disp-39 0
XXX disp-40 0
XXX disp-41 0
XXX disp-42 0
XXX disp-43 0
XXX disp-44 0
XXX disp-45 0
XXX disp-46 0
XXX disp-47 2149
XXX disp-48 0
XXX disp-49 0
XXX disp-50 0
XXX disp-51 0
XXX disp-52 0
XXX disp-53 0
XXX disp-54 0
XXX disp-55 0
XXX disp-56 0
XXX disp-57 0
XXX disp-58 0
XXX disp-59 0
XXX disp-60 0
XXX disp-61 0
XXX disp-62 0
XXX disp-63 0
XXX disp-64 0
XXX disp-65 0
XXX diffBits-0 2180401
XXX diffBits-1 0
XXX diffBits-2 82627
XXX diffBits-3 372975
XXX diffBits-4 476917
XXX diffBits-5 1003977
XXX diffBits-6 604757
XXX diffBits-7 538215
XXX diffBits-8 701876
XXX diffBits-9 566191
XXX diffBits-10 371117
XXX diffBits-11 523505
XXX diffBits-12 218684
XXX diffBits-13 305296
XXX diffBits-14 96683
XXX diffBits-15 139747
XXX diffBits-16 233717
XXX diffBits-17 80117
XXX diffBits-18 209050
XXX diffBits-19 297258
XXX diffBits-20 144713
XXX diffBits-21 53788
XXX diffBits-22 301656
XXX diffBits-23 0
XXX diffBits-24 0
XXX diffBits-25 0
XXX diffBits-26 0
XXX diffBits-27 0
XXX diffBits-28 0
XXX diffBits-29 0
XXX diffBits-30 0
XXX diffBits-31 0
XXX diffBits-32 0
XXX diffBits-33 0
XXX diffBits-34 0
XXX diffBits-35 0
XXX diffBits-36 0
XXX diffBits-37 0
XXX diffBits-38 0
XXX diffBits-39 0
XXX diffBits-40 0
XXX diffBits-41 0
XXX diffBits-42 0
XXX diffBits-43 0
XXX diffBits-44 0
XXX diffBits-45 0
XXX diffBits-46 2149
XXX diffBits-47 0
XXX diffBits-48 0
XXX diffBits-49 0
XXX diffBits-50 0
XXX diffBits-51 0
XXX diffBits-52 0
XXX diffBits-53 0
XXX diffBits-54 0
XXX diffBits-55 0
XXX diffBits-56 0
XXX diffBits-57 0
XXX diffBits-58 0
XXX diffBits-59 0
XXX diffBits-60 0
XXX diffBits-61 0
XXX diffBits-62 0
XXX diffBits-63 0
XXX diffBits-64 0
XXX diffBits-65 0
CPU 0 L1D next line prefetcher final stats

DRAM Statistics
 CHANNEL 0
 RQ ROW_BUFFER_HIT:        526  ROW_BUFFER_MISS:       2155
 DBUS_CONGESTED:       1529
 WQ ROW_BUFFER_HIT:        346  ROW_BUFFER_MISS:       1478  FULL:          0

 AVG_CONGESTED_CYCLE: 6

CPU 0 Branch Prediction Accuracy: 97.6852% MPKI: 3.82006 Average ROB Occupancy at Mispredict: 41.7923

XXX total_mispredicts 191003
XXX total_target_mispredicts1 180735
XXX total_target_mispredicts2 322
XXX total_direction_mispredicts 9946
XXX mispredict_on_btb_hit 180196
XXX NOT_BRANCH: 0
XXX BRANCH_DIRECT_JUMP: 0
XXX BRANCH_INDIRECT: 0
XXX BRANCH_CONDITIONAL: 0
XXX BRANCH_DIRECT_CALL: 0
XXX BRANCH_INDIRECT_CALL: 43882
XXX BRANCH_RETURN: 136314
XXX BRANCH_OTHER: 0
Branch types
NOT_BRANCH: 41748710 83.4974%
BRANCH_DIRECT_JUMP: 468564 0.937128%
BRANCH_INDIRECT: 0 0%
BRANCH_CONDITIONAL: 5599811 11.1996%
BRANCH_DIRECT_CALL: 885111 1.77022%
BRANCH_INDIRECT_CALL: 206338 0.412676%
BRANCH_RETURN: 1091475 2.18295%
BRANCH_OTHER: 0 0%

XXX BTB_reads: 2296476
XXX BTB_writes: 861
XXX PageBTB_reads: 0
XXX PageBTB_writes: 0
XXX PageBTB_readsBeforeWrite: 0
XXX RegionBTB_reads: 0
XXX RegionBTB_writes: 0
XXX RegionBTB_readsBeforeWrite: 0
XXX BTB_4D_Hits 450109
XXX BTB_6D_Hits 805607
XXX BTB_8D_Hits 901416
XXX BTB_12D_Hits 711137
XXX BTB_18D_Hits 601616
XXX BTB_25D_Hits 177852
XXX BTB_46D_Hits 0
XXX BTB_Ret_Hits 1091384
XXX BTB_4D_Misses 56
XXX BTB_6D_Misses 47
XXX BTB_8D_Misses 115
XXX BTB_12D_Misses 142
XXX BTB_18D_Misses 100
XXX BTB_25D_Misses 196
XXX BTB_46D_Misses 114
XXX BTB_Ret_Misses 91
XXX Num_unique_branches 2944
total instructions: 0
wc,tif,trb
15,41,129
22,113,202
19,90,124
24,119,249
34,191,237
28,149,229
23,104,237
21,99,180
18,86,103
32,172,340
25,123,233
29,125,245
41,204,296
16,55,115
14,66,108
15,61,105
14,58,159
38,229,174
23,107,162
25,113,194
17,125,86
19,83,133
14,61,131
20,90,137
20,95,162
18,98,124
21,84,132
24,138,162
27,152,208
22,81,215
31,203,307
23,94,247
28,172,189
13,63,98
19,82,142
16,87,80
16,42,144
18,99,165
11,69,51
13,66,93
13,51,120
16,72,100
13,54,158
19,116,136
21,110,188
16,62,122
24,119,127
18,58,218
11,56,72
28,160,176
14,37,195
20,105,149
24,120,165
12,55,71
18,62,178
14,62,152
22,128,112
39,181,249
23,121,196
18,77,169
20,120,143
16,85,145
20,67,216
31,114,308
26,160,164
15,71,137
22,84,189
20,103,138
22,122,150
25,127,181
14,72,90
20,130,130
24,121,151
18,99,141
23,87,247
17,69,94
31,146,287
15,66,126
26,74,278
15,91,82
33,174,309
46,261,544
17,87,132
17,67,108
28,124,270
22,106,172
19,74,192
34,217,190
22,104,248
12,50,108
26,135,212
15,37,189
16,62,106
33,160,276
24,109,307
18,96,142
25,142,189
17,79,142
20,86,125
23,92,263
24,101,183
22,86,185
23,85,180
24,158,164
30,147,267
20,102,190
16,50,175
30,153,263
15,75,118
27,121,296
16,81,127
30,188,251
28,142,209
21,94,177
36,162,305
24,146,174
13,53,124
19,88,132
20,106,149
19,91,172
27,141,304
20,96,173
18,102,152
17,56,189
30,129,326
24,101,276
16,66,111
24,104,224
24,102,147
12,56,99
23,105,177
16,75,89
21,87,155
19,76,166
18,45,185
22,88,151
27,132,241
16,59,142
22,100,170
19,101,124
30,156,208
27,134,189
20,94,168
21,88,137
39,237,354
16,90,88
20,121,155
20,112,164
25,125,140
24,109,187
22,108,205
16,56,106
20,78,171
24,106,218
24,90,258
18,93,168
18,82,103
18,81,183
20,84,186
25,111,201
14,67,88
21,75,218
23,128,131
30,123,256
17,103,136
17,66,157
22,62,265
24,142,155
17,74,172
25,108,199
26,165,149
30,166,186
14,56,156
29,160,192
18,84,136
17,64,145
16,59,115
15,94,97
21,75,230
26,114,238
23,76,211
17,81,142
21,77,219
25,133,209
21,113,202
30,131,224
29,99,269
20,85,180
18,64,235
28,136,246
30,135,184
23,85,269
15,58,163
24,136,176
24,113,201
15,74,137
26,78,244
24,135,217
36,149,326
8,47,33
21,82,206
22,90,192
20,116,151
21,88,169
29,160,252
38,246,234
37,172,287
28,127,323
29,173,168
39,173,363
20,109,160
19,93,168
17,66,158
30,158,247
35,196,350
30,151,229
18,76,202
30,97,315
42,257,302
34,130,423
19,89,134
26,117,227
22,128,192
25,158,210
16,58,162
27,125,258
14,45,110
14,46,107
19,103,120
16,79,133
22,98,138
12,35,139
17,70,129
23,104,194
33,158,235
24,119,175
15,43,178
28,149,192
15,71,126
17,88,132
16,68,149
31,170,292
10,54,105
33,119,311
16,71,112
17,64,135
27,122,223
22,116,176
25,129,213
25,110,256
27,126,231
27,101,214
12,49,119
28,101,279
14,78,116
12,56,120
41,223,290
23,108,174
18,52,221
29,170,202
21,88,162
17,110,73
19,89,148
32,150,191
19,66,173
25,113,201
17,79,156
24,133,162
29,139,288
30,131,348
24,111,209
25,88,209
17,73,106
20,100,155
23,108,180
31,182,286
20,72,216
35,205,257
24,96,204
16,73,152
26,93,280
19,109,146
29,120,260
29,126,269
20,95,171
23,103,254
26,133,281
29,131,276
36,175,375
24,84,174
26,129,237
38,184,414
46,236,401
24,119,129
14,46,150
30,135,253
18,98,125
30,176,166
20,86,186
19,67,226
23,67,202
11,46,97
16,69,145
36,182,264
17,69,129
28,135,194
26,125,218
26,133,199
16,79,125
20,96,163
28,140,227
28,121,259
17,66,173
16,76,112
8,16,90
19,88,139
26,127,245
21,71,252
26,134,229
21,88,184
20,99,149
23,96,255
24,113,148
30,100,304
18,67,151
33,146,313
25,123,168
20,76,150
18,76,173
21,79,270
16,83,123
43,182,359
18,54,182
25,144,147
35,186,241
20,75,233
22,111,238
32,114,308
31,166,218
27,169,158
33,137,292
23,112,246
32,102,314
23,93,168
18,86,178
14,67,88
18,102,151
46,231,512
16,70,164
27,95,288
31,140,217
38,250,229
25,57,252
23,92,186
31,179,227
29,122,374
21,93,182
29,107,251
21,115,208
21,69,163
33,206,182
34,202,293
20,80,158
27,104,298
23,137,118
31,164,269
28,165,126
12,44,88
27,138,224
16,65,137
29,177,202
33,127,370
25,118,139
21,69,235
15,30,183
40,248,337
38,172,362
24,96,195
18,74,123
26,102,236
22,95,217
19,76,179
16,64,166
22,98,185
24,116,180
18,78,113
14,54,113
23,119,156
21,109,184
30,184,183
28,146,289
21,127,135
21,88,189
34,174,257
25,115,154
34,190,269
22,128,186
26,139,203
33,169,237
18,53,195
26,139,198
22,97,188
36,183,297
19,81,161
21,95,164
22,111,189
15,54,141
15,76,105
27,135,212
12,58,116
26,137,231
32,176,251
25,103,187
13,76,75
36,183,403
30,191,227
22,103,173
18,97,145
18,66,160
27,120,248
12,52,78
22,115,182
32,141,341
21,92,153
22,113,178
31,101,359
21,48,191
21,118,177
31,118,258
26,97,225
24,129,152
21,127,119
30,196,192
19,70,167
16,57,149
16,78,101
29,124,223
24,116,175
24,94,189
25,122,238
19,108,144
25,119,144
31,107,307
19,104,132
19,115,136
17,98,147
24,119,202
39,181,383
19,87,147
28,150,196
22,97,180
21,98,156
21,96,119
14,56,140
37,148,432
27,105,263
29,148,194
20,69,186
26,100,263
33,159,283
26,122,271
28,116,271
22,92,203
34,121,298
22,110,180
25,85,225
37,216,250
23,124,235
21,74,150
20,90,137
25,98,242
29,128,190
17,88,128
22,99,164
23,109,215
18,77,212
17,61,220
32,122,287
29,105,334
31,110,303
16,95,104
36,195,325
27,97,248
26,113,151
19,77,206
42,251,274
11,53,127
29,114,274
26,115,177
39,199,308
36,221,320
24,158,159
32,184,265
30,105,249
25,112,199
22,96,232
15,64,159
27,134,239
29,181,175
20,102,137
20,78,180
32,152,234
18,113,165
15,37,157
27,163,318
29,127,353
26,126,255
26,122,236
37,160,443
25,130,225
33,221,276
44,251,478
