Initialize SIGNATURE TABLE
ST_SET: 1
ST_WAY: 256
ST_TAG_BIT: 16
ST_TAG_MASK: ffff

Initialize PATTERN TABLE
PT_SET: 512
PT_WAY: 4
SIG_DELTA_BIT: 7
C_SIG_BIT: 4
C_DELTA_BIT: 4

Initialize PREFETCH FILTER
FILTER_SET: 1024

*** ChampSim Multicore Out-of-Order Simulator ***

Warmup Instructions: 50000000
Simulation Instructions: 50000000
Number of CPUs: 1
LLC sets: 2048
LLC ways: 16
Off-chip DRAM Size: 4096 MB Channels: 1 Width: 64-bit Data Rate: 3200 MT/s

CPU 0 runs /ChampSim-master-BTBX/dpc3_traces/server_018.champsimtrace.xz
Basic BTB sets: 4096 ways: 4 indirect buffer size: 4096 RAS size: 64
CPU 0 L1D next line prefetcher
Heartbeat CPU 0 instructions: 10000003 cycles: 3618218 heartbeat IPC: 2.76379 cumulative IPC: 2.76379 (Simulation time: 0 hr 0 min 18 sec) 
Heartbeat CPU 0 instructions: 20000001 cycles: 7241489 heartbeat IPC: 2.75994 cumulative IPC: 2.76186 (Simulation time: 0 hr 0 min 36 sec) 
Heartbeat CPU 0 instructions: 30000003 cycles: 10717874 heartbeat IPC: 2.87655 cumulative IPC: 2.79906 (Simulation time: 0 hr 0 min 54 sec) 
Heartbeat CPU 0 instructions: 40000000 cycles: 14231084 heartbeat IPC: 2.8464 cumulative IPC: 2.81075 (Simulation time: 0 hr 1 min 12 sec) 
Heartbeat CPU 0 instructions: 50000003 cycles: 17850408 heartbeat IPC: 2.76295 cumulative IPC: 2.80106 (Simulation time: 0 hr 1 min 30 sec) 

Warmup complete CPU 0 instructions: 50000003 cycles: 17850408 (Simulation time: 0 hr 1 min 30 sec) 

Heartbeat CPU 0 instructions: 60000000 cycles: 37672420 heartbeat IPC: 0.504489 cumulative IPC: 0.504489 (Simulation time: 0 hr 1 min 53 sec) 
Heartbeat CPU 0 instructions: 70000000 cycles: 57504815 heartbeat IPC: 0.504226 cumulative IPC: 0.504357 (Simulation time: 0 hr 2 min 16 sec) 
Heartbeat CPU 0 instructions: 80000000 cycles: 77244240 heartbeat IPC: 0.5066 cumulative IPC: 0.505103 (Simulation time: 0 hr 2 min 39 sec) 
Heartbeat CPU 0 instructions: 90000000 cycles: 96985500 heartbeat IPC: 0.506553 cumulative IPC: 0.505465 (Simulation time: 0 hr 3 min 2 sec) 
Heartbeat CPU 0 instructions: 100000001 cycles: 116772220 heartbeat IPC: 0.50539 cumulative IPC: 0.50545 (Simulation time: 0 hr 3 min 25 sec) 
Finished CPU 0 instructions: 50000002 cycles: 98921813 cumulative IPC: 0.50545 (Simulation time: 0 hr 3 min 25 sec) 

ChampSim completed all CPUs

Region of Interest Statistics

CPU 0
XXX cumulative-IPC 0.50545
XXX instructions 50000002
XXX cycles 98921813
L1D TOTAL     ACCESS:   19550663  HIT:   17331883  MISS:    2218780
L1D LOAD      ACCESS:    7447251  HIT:    6747304  MISS:     699947
L1D RFO       ACCESS:    5852132  HIT:    4899045  MISS:     953087
L1D PREFETCH  ACCESS:    6251280  HIT:    5685534  MISS:     565746
L1D WRITEBACK ACCESS:          0  HIT:          0  MISS:          0
L1D PREFETCH  REQUESTED:    7493676  ISSUED:    7329693
XXX L1D-USEFUL 225133
XXX L1D-USELESS 340701
L1D AVERAGE MISS LATENCY: 167.482 cycles
L1I TOTAL     ACCESS:   14459482  HIT:   11411208  MISS:    3048274
L1I LOAD      ACCESS:   10409222  HIT:    8563303  MISS:    1845919
L1I RFO       ACCESS:          0  HIT:          0  MISS:          0
L1I PREFETCH  ACCESS:    4050260  HIT:    2847905  MISS:    1202355
L1I WRITEBACK ACCESS:          0  HIT:          0  MISS:          0
L1I PREFETCH  REQUESTED:    6836862  ISSUED:    6836862
XXX L1I-USEFUL 713054
XXX L1I-USELESS 489328
L1I AVERAGE MISS LATENCY: 15.8224 cycles
L2C TOTAL     ACCESS:    8219093  HIT:    6320984  MISS:    1898109
L2C LOAD      ACCESS:    2125793  HIT:    1792770  MISS:     333023
L2C RFO       ACCESS:     952583  HIT:      19294  MISS:     933289
L2C PREFETCH  ACCESS:    3970301  HIT:    3341201  MISS:     629100
L2C WRITEBACK ACCESS:    1170416  HIT:    1167719  MISS:       2697
L2C PREFETCH  REQUESTED:    4970711  ISSUED:    4964846
XXX L2C-USEFUL 39513
XXX L2C-USELESS 590204
L2C AVERAGE MISS LATENCY: 198.018 cycles
LLC TOTAL     ACCESS:    4039255  HIT:    2578397  MISS:    1460858
LLC LOAD      ACCESS:     332842  HIT:     222697  MISS:     110145
LLC RFO       ACCESS:     933250  HIT:     135206  MISS:     798044
LLC PREFETCH  ACCESS:    1670468  HIT:    1119832  MISS:     550636
LLC WRITEBACK ACCESS:    1102695  HIT:    1100662  MISS:       2033
LLC PREFETCH  REQUESTED:          0  ISSUED:          0
XXX LLC-USEFUL 35289
XXX LLC-USELESS 514786
LLC AVERAGE MISS LATENCY: 264.247 cycles
Major fault: 0 Minor fault: 22445
XXX disp-0 1783880
XXX disp-1 0
XXX disp-2 0
XXX disp-3 764317
XXX disp-4 1132647
XXX disp-5 1065400
XXX disp-6 1413266
XXX disp-7 611363
XXX disp-8 570902
XXX disp-9 363889
XXX disp-10 232564
XXX disp-11 205105
XXX disp-12 268261
XXX disp-13 119691
XXX disp-14 119379
XXX disp-15 132346
XXX disp-16 190891
XXX disp-17 67176
XXX disp-18 198418
XXX disp-19 156808
XXX disp-20 94837
XXX disp-21 30401
XXX disp-22 9050
XXX disp-23 186392
XXX disp-24 0
XXX disp-25 0
XXX disp-26 0
XXX disp-27 0
XXX disp-28 0
XXX disp-29 0
XXX disp-30 0
XXX disp-31 0
XXX disp-32 0
XXX disp-33 0
XXX disp-34 0
XXX disp-35 0
XXX disp-36 0
XXX disp-37 0
XXX disp-38 0
XXX disp-39 0
XXX disp-40 0
XXX disp-41 0
XXX disp-42 0
XXX disp-43 0
XXX disp-44 0
XXX disp-45 0
XXX disp-46 93041
XXX disp-47 0
XXX disp-48 0
XXX disp-49 0
XXX disp-50 0
XXX disp-51 0
XXX disp-52 0
XXX disp-53 0
XXX disp-54 0
XXX disp-55 0
XXX disp-56 0
XXX disp-57 0
XXX disp-58 0
XXX disp-59 0
XXX disp-60 0
XXX disp-61 0
XXX disp-62 0
XXX disp-63 0
XXX disp-64 0
XXX disp-65 0
XXX diffBits-0 1783880
XXX diffBits-1 0
XXX diffBits-2 645967
XXX diffBits-3 728273
XXX diffBits-4 446465
XXX diffBits-5 1010039
XXX diffBits-6 771425
XXX diffBits-7 546091
XXX diffBits-8 530794
XXX diffBits-9 988557
XXX diffBits-10 283677
XXX diffBits-11 328786
XXX diffBits-12 100345
XXX diffBits-13 282863
XXX diffBits-14 98571
XXX diffBits-15 133384
XXX diffBits-16 301763
XXX diffBits-17 33058
XXX diffBits-18 109258
XXX diffBits-19 283886
XXX diffBits-20 94016
XXX diffBits-21 29333
XXX diffBits-22 186552
XXX diffBits-23 0
XXX diffBits-24 0
XXX diffBits-25 0
XXX diffBits-26 0
XXX diffBits-27 0
XXX diffBits-28 0
XXX diffBits-29 0
XXX diffBits-30 0
XXX diffBits-31 0
XXX diffBits-32 0
XXX diffBits-33 0
XXX diffBits-34 0
XXX diffBits-35 0
XXX diffBits-36 0
XXX diffBits-37 0
XXX diffBits-38 0
XXX diffBits-39 0
XXX diffBits-40 0
XXX diffBits-41 0
XXX diffBits-42 0
XXX diffBits-43 0
XXX diffBits-44 0
XXX diffBits-45 93041
XXX diffBits-46 0
XXX diffBits-47 0
XXX diffBits-48 0
XXX diffBits-49 0
XXX diffBits-50 0
XXX diffBits-51 0
XXX diffBits-52 0
XXX diffBits-53 0
XXX diffBits-54 0
XXX diffBits-55 0
XXX diffBits-56 0
XXX diffBits-57 0
XXX diffBits-58 0
XXX diffBits-59 0
XXX diffBits-60 0
XXX diffBits-61 0
XXX diffBits-62 0
XXX diffBits-63 0
XXX diffBits-64 0
XXX diffBits-65 0
CPU 0 L1D next line prefetcher final stats

DRAM Statistics
 CHANNEL 0
 RQ ROW_BUFFER_HIT:     428846  ROW_BUFFER_MISS:    1029720
 DBUS_CONGESTED:    1357639
 WQ ROW_BUFFER_HIT:     237942  ROW_BUFFER_MISS:     663135  FULL:          0

 AVG_CONGESTED_CYCLE: 6

CPU 0 Branch Prediction Accuracy: 97.8673% MPKI: 3.52274 Average ROB Occupancy at Mispredict: 91.6884

XXX total_mispredicts 176137
XXX total_target_mispredicts1 151899
XXX total_target_mispredicts2 1283
XXX total_direction_mispredicts 22955
XXX mispredict_on_btb_hit 135738
XXX NOT_BRANCH: 0
XXX BRANCH_DIRECT_JUMP: 0
XXX BRANCH_INDIRECT: 0
XXX BRANCH_CONDITIONAL: 0
XXX BRANCH_DIRECT_CALL: 0
XXX BRANCH_INDIRECT_CALL: 28551
XXX BRANCH_RETURN: 107187
XXX BRANCH_OTHER: 0
Branch types
NOT_BRANCH: 41741008 83.482%
BRANCH_DIRECT_JUMP: 458652 0.917304%
BRANCH_INDIRECT: 48282 0.096564%
BRANCH_CONDITIONAL: 5930881 11.8618%
BRANCH_DIRECT_CALL: 744230 1.48846%
BRANCH_INDIRECT_CALL: 166336 0.332672%
BRANCH_RETURN: 910589 1.82118%
BRANCH_OTHER: 0 0%

XXX BTB_reads: 2119104
XXX BTB_writes: 17444
XXX PageBTB_reads: 0
XXX PageBTB_writes: 0
XXX PageBTB_readsBeforeWrite: 0
XXX RegionBTB_reads: 0
XXX RegionBTB_writes: 0
XXX RegionBTB_readsBeforeWrite: 0
XXX BTB_4D_Hits 827837
XXX BTB_6D_Hits 909744
XXX BTB_8D_Hits 1088182
XXX BTB_12D_Hits 466450
XXX BTB_18D_Hits 551845
XXX BTB_25D_Hits 112737
XXX BTB_46D_Hits 37674
XXX BTB_Ret_Hits 910497
XXX BTB_4D_Misses 85
XXX BTB_6D_Misses 54
XXX BTB_8D_Misses 412
XXX BTB_12D_Misses 550
XXX BTB_18D_Misses 784
XXX BTB_25D_Misses 3312
XXX BTB_46D_Misses 12155
XXX BTB_Ret_Misses 92
XXX Num_unique_branches 4656
total instructions: 0
wc,tif,trb
5,11,51
11,51,84
8,32,67
8,17,63
4,8,27
7,12,43
8,31,49
4,10,24
15,65,116
8,29,77
51,445,570
11,41,180
17,83,216
13,100,121
8,15,65
6,21,48
14,96,94
5,12,13
6,16,44
7,24,47
12,83,91
5,4,23
7,15,62
6,7,29
11,43,114
6,14,30
16,87,127
5,7,39
6,30,30
14,55,157
20,151,263
6,23,32
7,14,66
9,44,89
6,14,46
13,62,109
7,25,64
4,9,26
6,13,38
8,19,61
13,57,58
665,4732,9875
5,9,22
7,24,31
8,18,68
7,11,44
8,18,90
26,204,119
250,1767,4325
27,224,292
5,8,33
101,549,673
9,45,46
7,28,72
5,2,30
10,54,81
186,727,3817
7,11,69
7,21,50
6,5,41
8,48,32
6,36,35
8,17,75
2,0,7
6,21,15
7,11,62
4,8,33
5,2,37
8,35,45
6,13,63
9,40,103
7,18,51
7,14,61
7,26,29
5,7,51
10,48,52
10,39,114
5,9,26
7,35,41
8,42,106
6,13,71
3,4,26
11,43,76
7,37,38
458,3782,6192
5,23,41
14,58,116
10,27,103
9,34,65
17,170,141
5,8,38
10,40,70
10,41,103
4,22,54
9,43,46
15,90,169
7,21,69
4,2,28
3,5,23
8,21,100
9,43,82
7,22,54
7,30,25
8,28,52
7,31,44
8,26,54
7,33,42
7,30,46
3,7,24
5,6,25
8,26,89
9,58,62
5,11,41
64,366,958
5,9,34
45,351,679
5,12,59
5,7,22
7,16,59
7,28,41
8,23,57
5,16,30
6,27,41
9,43,88
20,61,278
12,58,104
18,65,195
33,238,404
24,159,321
10,62,68
8,36,44
7,16,39
122,927,519
7,12,87
4,4,26
7,25,44
8,37,43
6,25,48
4,6,18
7,24,31
18,73,154
13,106,73
10,17,116
10,51,73
6,19,31
11,33,161
7,25,50
12,65,91
43,308,383
65,583,489
5,12,13
11,72,71
9,62,70
14,76,174
4,2,30
4,6,46
15,108,103
7,34,51
39,155,563
14,106,95
15,85,96
8,14,94
9,70,55
9,23,100
8,27,83
5,7,18
5,25,69
21,82,336
5,5,45
7,18,51
10,64,60
5,7,38
12,49,98
10,54,56
4,7,49
12,43,145
7,10,88
18,110,118
4,10,24
7,33,42
9,38,61
6,9,46
3,7,20
13,24,109
11,56,65
8,26,54
5,12,44
5,7,50
8,24,56
8,22,101
4,6,45
6,13,23
40,285,423
9,22,83
7,40,40
5,9,39
12,61,120
7,9,46
6,21,15
6,8,46
8,22,58
38,214,527
13,79,84
4,13,40
10,18,132
6,11,50
7,26,43
7,30,46
11,63,66
17,125,132
4,3,32
13,88,105
10,60,123
5,11,30
7,11,58
19,114,236
7,21,34
10,30,72
8,22,58
11,39,61
11,76,99
4,12,27
5,10,21
12,80,129
7,16,55
7,18,58
5,8,36
5,9,34
11,32,129
7,20,35
11,48,134
5,9,26
8,33,47
63,311,1113
13,85,80
14,45,141
6,11,65
27,116,172
9,44,85
7,22,47
9,53,76
6,24,65
7,19,54
12,55,122
9,57,42
14,75,109
5,16,11
8,22,78
22,121,181
5,12,34
7,20,53
6,18,50
24,197,181
6,5,43
6,25,71
6,14,54
34,302,242
7,24,56
4,5,34
8,21,59
4,15,33
11,30,182
6,6,62
5,9,36
12,50,58
5,10,31
6,8,54
21,116,199
10,38,92
8,22,58
6,19,41
7,27,53
5,15,53
12,33,125
30,276,270
9,38,65
45,159,713
326,1687,3277
13,43,132
4,29,35
8,69,64
7,22,53
12,48,117
6,13,62
4,6,37
6,12,24
22,96,216
4,9,21
10,32,100
7,17,38
12,42,110
10,55,59
7,28,27
8,29,72
8,22,58
7,28,47
6,49,65
8,66,55
9,41,118
9,41,83
11,67,76
10,9,83
8,30,71
13,110,97
7,25,44
443,2529,6150
4,3,25
11,36,136
7,12,43
5,6,33
10,40,121
6,10,26
11,60,86
5,31,40
5,12,46
13,52,107
7,15,54
4,17,47
5,11,66
5,16,55
3,8,20
8,30,64
9,28,91
13,93,112
8,17,63
3,2,14
8,28,52
5,10,31
12,72,89
5,10,47
13,52,159
12,72,74
7,26,85
5,10,41
200,1361,3341
13,54,109
6,17,47
4,10,45
8,37,43
80,366,1318
7,38,37
93,470,1379
23,91,164
6,6,45
5,11,14
5,11,20
10,29,101
9,38,81
9,25,88
8,39,41
9,73,70
7,42,79
5,18,37
1,0,0
14,73,83
8,17,63
33,277,218
17,107,112
5,3,22
10,53,77
5,15,50
6,1,43
16,89,131
2,1,23
12,54,73
15,87,114
8,53,27
9,33,93
8,35,45
34,260,297
7,30,66
8,30,50
8,30,50
10,38,92
11,71,52
11,61,96
4,6,27
6,4,47
6,8,40
7,20,49
20,165,137
4,25,39
5,3,43
1,1,8
13,49,181
6,8,28
13,38,191
22,110,305
2,1,15
8,24,56
4,15,69
7,12,61
6,29,47
16,108,118
7,15,40
10,34,142
9,18,105
10,55,75
5,12,52
4,2,37
14,108,104
11,43,104
13,39,176
8,30,50
10,26,106
236,474,2759
11,66,95
4,8,54
14,130,112
10,46,78
8,27,53
9,34,57
16,66,136
12,44,160
19,136,220
7,10,65
7,36,19
10,18,80
13,46,125
5,6,44
5,7,45
5,17,48
7,9,67
24,175,162
4,0,31
3,10,38
7,12,86
3,6,18
8,37,89
8,20,60
8,24,56
7,37,43
11,47,98
86,338,1722
8,7,73
11,45,98
9,26,99
9,21,120
12,65,73
5,7,24
464,3392,6336
13,108,85
6,45,73
4,7,53
22,82,242
3,1,23
8,24,56
6,16,60
7,9,62
8,47,33
123,684,2201
6,17,52
54,326,715
9,42,83
9,50,49
10,51,93
8,49,70
11,44,159
280,2175,4659
437,3296,3581
12,29,161
6,19,57
8,44,82
12,69,90
6,9,55
7,45,35
4,8,27
9,45,68
6,22,54
13,63,137
19,87,154
8,16,64
8,32,87
526,4894,6028
10,51,102
12,43,115
13,87,114
10,73,57
9,36,69
17,65,146
5,8,33
4,3,36
8,25,55
333,3060,3772
7,17,38
8,33,47
15,96,81
5,6,46
9,39,66
619,3382,10149
17,87,166
11,47,90
6,16,51
18,106,93
10,28,127
6,26,59
13,62,77
8,14,66
7,6,69
15,89,130
6,9,37
277,973,5721
21,98,157
3,3,23
9,40,88
5,21,64
269,2300,3295
5,16,43
10,66,121
8,57,105
8,47,74
12,62,132
