Initialize SIGNATURE TABLE
ST_SET: 1
ST_WAY: 256
ST_TAG_BIT: 16
ST_TAG_MASK: ffff

Initialize PATTERN TABLE
PT_SET: 512
PT_WAY: 4
SIG_DELTA_BIT: 7
C_SIG_BIT: 4
C_DELTA_BIT: 4

Initialize PREFETCH FILTER
FILTER_SET: 1024

*** ChampSim Multicore Out-of-Order Simulator ***

Warmup Instructions: 50000000
Simulation Instructions: 50000000
Number of CPUs: 1
LLC sets: 2048
LLC ways: 16
Off-chip DRAM Size: 4096 MB Channels: 1 Width: 64-bit Data Rate: 3200 MT/s

CPU 0 runs /ChampSim-master-BTBX/dpc3_traces/server_001.champsimtrace.xz
Basic BTB sets: 4096 ways: 4 indirect buffer size: 4096 RAS size: 64
CPU 0 L1D next line prefetcher
Heartbeat CPU 0 instructions: 10000002 cycles: 3154693 heartbeat IPC: 3.16988 cumulative IPC: 3.16988 (Simulation time: 0 hr 0 min 17 sec) 
Heartbeat CPU 0 instructions: 20000000 cycles: 6368894 heartbeat IPC: 3.11119 cumulative IPC: 3.14026 (Simulation time: 0 hr 0 min 33 sec) 
Heartbeat CPU 0 instructions: 30000003 cycles: 9554187 heartbeat IPC: 3.13943 cumulative IPC: 3.13998 (Simulation time: 0 hr 0 min 50 sec) 
Heartbeat CPU 0 instructions: 40000002 cycles: 12760909 heartbeat IPC: 3.11845 cumulative IPC: 3.13457 (Simulation time: 0 hr 1 min 7 sec) 
Heartbeat CPU 0 instructions: 50000003 cycles: 15979208 heartbeat IPC: 3.10723 cumulative IPC: 3.12907 (Simulation time: 0 hr 1 min 24 sec) 

Warmup complete CPU 0 instructions: 50000003 cycles: 15979208 (Simulation time: 0 hr 1 min 24 sec) 

Heartbeat CPU 0 instructions: 60000002 cycles: 25640830 heartbeat IPC: 1.03502 cumulative IPC: 1.03502 (Simulation time: 0 hr 1 min 41 sec) 
Heartbeat CPU 0 instructions: 70000001 cycles: 34928408 heartbeat IPC: 1.07671 cumulative IPC: 1.05545 (Simulation time: 0 hr 1 min 58 sec) 
Heartbeat CPU 0 instructions: 80000002 cycles: 44355969 heartbeat IPC: 1.06072 cumulative IPC: 1.0572 (Simulation time: 0 hr 2 min 15 sec) 
Heartbeat CPU 0 instructions: 90000002 cycles: 54065222 heartbeat IPC: 1.02995 cumulative IPC: 1.05025 (Simulation time: 0 hr 2 min 32 sec) 
Heartbeat CPU 0 instructions: 100000003 cycles: 63321335 heartbeat IPC: 1.08037 cumulative IPC: 1.05614 (Simulation time: 0 hr 2 min 49 sec) 
Finished CPU 0 instructions: 50000000 cycles: 47342127 cumulative IPC: 1.05614 (Simulation time: 0 hr 2 min 49 sec) 

ChampSim completed all CPUs

Region of Interest Statistics

CPU 0
XXX cumulative-IPC 1.05614
XXX instructions 50000000
XXX cycles 47342127
L1D TOTAL     ACCESS:   18085506  HIT:   17574100  MISS:     511406
L1D LOAD      ACCESS:    6651720  HIT:    6462347  MISS:     189373
L1D RFO       ACCESS:    5089810  HIT:    5005499  MISS:      84311
L1D PREFETCH  ACCESS:    6343976  HIT:    6106254  MISS:     237722
L1D WRITEBACK ACCESS:          0  HIT:          0  MISS:          0
L1D PREFETCH  REQUESTED:    6680321  ISSUED:    6504445
XXX L1D-USEFUL 146846
XXX L1D-USELESS 91004
L1D AVERAGE MISS LATENCY: 87.2594 cycles
L1I TOTAL     ACCESS:   12326864  HIT:   11676024  MISS:     650840
L1I LOAD      ACCESS:    8324173  HIT:    7914386  MISS:     409787
L1I RFO       ACCESS:          0  HIT:          0  MISS:          0
L1I PREFETCH  ACCESS:    4002691  HIT:    3761638  MISS:     241053
L1I WRITEBACK ACCESS:          0  HIT:          0  MISS:          0
L1I PREFETCH  REQUESTED:    4681990  ISSUED:    4681990
XXX L1I-USEFUL 165915
XXX L1I-USELESS 75155
L1I AVERAGE MISS LATENCY: 19.3443 cycles
L2C TOTAL     ACCESS:    1938566  HIT:    1452474  MISS:     486092
L2C LOAD      ACCESS:     448727  HIT:     341545  MISS:     107182
L2C RFO       ACCESS:      81177  HIT:      10360  MISS:      70817
L2C PREFETCH  ACCESS:    1200795  HIT:     893136  MISS:     307659
L2C WRITEBACK ACCESS:     207867  HIT:     207433  MISS:        434
L2C PREFETCH  REQUESTED:    1772187  ISSUED:    1771861
XXX L2C-USEFUL 38263
XXX L2C-USELESS 268232
L2C AVERAGE MISS LATENCY: 105.547 cycles
LLC TOTAL     ACCESS:    1166022  HIT:     836631  MISS:     329391
LLC LOAD      ACCESS:     107110  HIT:      76815  MISS:      30295
LLC RFO       ACCESS:      70817  HIT:       6669  MISS:      64148
LLC PREFETCH  ACCESS:     820625  HIT:     585951  MISS:     234674
LLC WRITEBACK ACCESS:     167470  HIT:     167196  MISS:        274
LLC PREFETCH  REQUESTED:          0  ISSUED:          0
XXX LLC-USEFUL 31999
XXX LLC-USELESS 196707
LLC AVERAGE MISS LATENCY: 194.486 cycles
Major fault: 0 Minor fault: 16701
XXX disp-0 1246583
XXX disp-1 0
XXX disp-2 28
XXX disp-3 1826459
XXX disp-4 424647
XXX disp-5 397492
XXX disp-6 420602
XXX disp-7 464658
XXX disp-8 249806
XXX disp-9 215972
XXX disp-10 124782
XXX disp-11 31407
XXX disp-12 54504
XXX disp-13 10236
XXX disp-14 45625
XXX disp-15 30370
XXX disp-16 46211
XXX disp-17 74196
XXX disp-18 138741
XXX disp-19 170978
XXX disp-20 308865
XXX disp-21 509238
XXX disp-22 76654
XXX disp-23 25277
XXX disp-24 13474
XXX disp-25 8354
XXX disp-26 9304
XXX disp-27 61
XXX disp-28 4180
XXX disp-29 0
XXX disp-30 0
XXX disp-31 0
XXX disp-32 0
XXX disp-33 0
XXX disp-34 0
XXX disp-35 0
XXX disp-36 0
XXX disp-37 0
XXX disp-38 0
XXX disp-39 0
XXX disp-40 0
XXX disp-41 0
XXX disp-42 0
XXX disp-43 0
XXX disp-44 0
XXX disp-45 0
XXX disp-46 0
XXX disp-47 0
XXX disp-48 0
XXX disp-49 0
XXX disp-50 0
XXX disp-51 0
XXX disp-52 0
XXX disp-53 0
XXX disp-54 0
XXX disp-55 0
XXX disp-56 0
XXX disp-57 0
XXX disp-58 0
XXX disp-59 0
XXX disp-60 0
XXX disp-61 0
XXX disp-62 0
XXX disp-63 5
XXX disp-64 0
XXX disp-65 0
XXX diffBits-0 1246583
XXX diffBits-1 27
XXX diffBits-2 438813
XXX diffBits-3 645006
XXX diffBits-4 932453
XXX diffBits-5 350200
XXX diffBits-6 379320
XXX diffBits-7 551712
XXX diffBits-8 307773
XXX diffBits-9 262564
XXX diffBits-10 166551
XXX diffBits-11 77429
XXX diffBits-12 31307
XXX diffBits-13 66180
XXX diffBits-14 15501
XXX diffBits-15 76667
XXX diffBits-16 29590
XXX diffBits-17 33113
XXX diffBits-18 143530
XXX diffBits-19 268947
XXX diffBits-20 449228
XXX diffBits-21 323005
XXX diffBits-22 39793
XXX diffBits-23 71513
XXX diffBits-24 0
XXX diffBits-25 17658
XXX diffBits-26 0
XXX diffBits-27 4241
XXX diffBits-28 0
XXX diffBits-29 0
XXX diffBits-30 0
XXX diffBits-31 0
XXX diffBits-32 0
XXX diffBits-33 0
XXX diffBits-34 0
XXX diffBits-35 0
XXX diffBits-36 0
XXX diffBits-37 0
XXX diffBits-38 0
XXX diffBits-39 0
XXX diffBits-40 0
XXX diffBits-41 0
XXX diffBits-42 0
XXX diffBits-43 0
XXX diffBits-44 0
XXX diffBits-45 0
XXX diffBits-46 0
XXX diffBits-47 0
XXX diffBits-48 0
XXX diffBits-49 0
XXX diffBits-50 0
XXX diffBits-51 0
XXX diffBits-52 0
XXX diffBits-53 0
XXX diffBits-54 0
XXX diffBits-55 0
XXX diffBits-56 0
XXX diffBits-57 0
XXX diffBits-58 0
XXX diffBits-59 0
XXX diffBits-60 0
XXX diffBits-61 0
XXX diffBits-62 5
XXX diffBits-63 0
XXX diffBits-64 0
XXX diffBits-65 0
CPU 0 L1D next line prefetcher final stats

DRAM Statistics
 CHANNEL 0
 RQ ROW_BUFFER_HIT:      94110  ROW_BUFFER_MISS:     234983
 DBUS_CONGESTED:     206854
 WQ ROW_BUFFER_HIT:      32055  ROW_BUFFER_MISS:     127255  FULL:          0

 AVG_CONGESTED_CYCLE: 6

CPU 0 Branch Prediction Accuracy: 97.1078% MPKI: 4.93194 Average ROB Occupancy at Mispredict: 92.9513

XXX total_mispredicts 246597
XXX total_target_mispredicts1 179322
XXX total_target_mispredicts2 40826
XXX total_direction_mispredicts 26449
XXX mispredict_on_btb_hit 132678
XXX NOT_BRANCH: 0
XXX BRANCH_DIRECT_JUMP: 0
XXX BRANCH_INDIRECT: 58084
XXX BRANCH_CONDITIONAL: 0
XXX BRANCH_DIRECT_CALL: 4
XXX BRANCH_INDIRECT_CALL: 591
XXX BRANCH_RETURN: 73999
XXX BRANCH_OTHER: 0
Branch types
NOT_BRANCH: 41473405 82.9468%
BRANCH_DIRECT_JUMP: 347939 0.695878%
BRANCH_INDIRECT: 148210 0.29642%
BRANCH_CONDITIONAL: 6817246 13.6345%
BRANCH_DIRECT_CALL: 570722 1.14144%
BRANCH_INDIRECT_CALL: 25133 0.050266%
BRANCH_RETURN: 617121 1.23424%
BRANCH_OTHER: 0 0%

XXX BTB_reads: 3004113
XXX BTB_writes: 87466
XXX PageBTB_reads: 0
XXX PageBTB_writes: 0
XXX PageBTB_readsBeforeWrite: 0
XXX RegionBTB_reads: 0
XXX RegionBTB_writes: 0
XXX RegionBTB_readsBeforeWrite: 0
XXX BTB_4D_Hits 985933
XXX BTB_6D_Hits 346590
XXX BTB_8D_Hits 543820
XXX BTB_12D_Hits 160369
XXX BTB_18D_Hits 480603
XXX BTB_25D_Hits 212561
XXX BTB_46D_Hits 1937
XXX BTB_Ret_Hits 610624
XXX BTB_4D_Misses 18635
XXX BTB_6D_Misses 4493
XXX BTB_8D_Misses 11242
XXX BTB_12D_Misses 8694
XXX BTB_18D_Misses 6886
XXX BTB_25D_Misses 12715
XXX BTB_46D_Misses 18304
XXX BTB_Ret_Misses 6497
XXX Num_unique_branches 17930
total instructions: 0
wc,tif,trb
314,1502,4099
342,1695,3459
307,2289,1977
447,2879,3047
67,646,373
398,2213,2375
592,3466,3730
84,396,1506
104,468,1350
119,781,1190
68,365,1063
461,2406,4542
253,2082,1450
330,1583,2276
317,1704,2577
93,665,1114
264,1396,1830
365,2623,1558
28,112,262
409,2178,2760
231,1241,1959
420,2097,5224
237,1316,2465
29,113,492
149,1418,830
51,201,960
250,1899,1266
376,2039,3544
297,2308,1836
382,2097,2485
361,2140,3293
289,1841,2405
304,1752,3002
296,1976,2030
374,1802,3557
489,3501,1842
376,2001,3465
95,661,748
12,44,124
521,3037,3747
86,581,723
11,45,82
202,1402,1691
77,496,574
105,387,1962
323,2199,2276
82,447,1085
288,2289,1725
100,337,1589
274,1815,1917
394,2318,3763
79,592,1146
489,2645,4483
425,2093,2880
131,815,945
108,825,889
234,586,3524
321,2209,2111
19,109,127
370,1973,3166
165,965,1998
525,2928,5461
219,1362,1951
493,1981,6082
313,1967,2593
199,1704,1114
219,1160,2778
244,1260,1403
244,1168,2598
204,1436,2048
295,1534,4151
259,1336,2515
383,2678,2137
395,2936,1922
171,1063,1493
276,1569,2101
106,922,506
274,1551,2684
293,1639,2725
237,1169,2247
199,1301,1499
163,1226,1060
211,925,3319
616,3408,4330
144,862,676
334,1982,3478
288,1516,2595
321,1949,2466
407,2318,2886
180,1087,1263
161,1045,1560
264,1165,1840
249,1429,1999
422,2491,2788
626,3971,4952
220,1245,2402
322,1227,4580
539,3479,2894
655,3505,5579
279,1962,1361
173,1532,760
124,521,1356
143,1046,1051
300,1883,1865
159,853,1692
275,1250,2239
432,2810,2394
70,418,741
82,402,1396
136,720,2244
179,1252,1645
87,619,502
290,1559,2734
488,3186,3742
390,3318,2077
199,1347,2124
624,3103,5609
441,2685,2647
429,1857,2918
401,1988,3742
36,185,595
210,1451,2030
620,3219,6055
614,4210,4759
193,1068,2102
224,1461,1959
403,2282,5065
365,1712,4469
361,2004,2796
524,3660,3632
261,1761,2241
171,832,2323
382,1941,4174
377,2122,2983
156,667,2073
555,3657,3712
353,2802,1583
94,583,928
227,1195,2120
370,1236,4602
164,1182,805
256,1434,1865
59,211,795
235,1283,2495
456,2952,2405
308,1558,4204
471,3816,2350
465,2137,4426
414,1971,3301
316,1959,2680
65,283,1031
111,524,1906
133,880,742
463,3403,2216
319,1597,3982
459,2293,2349
373,1828,3607
125,569,1667
261,1545,2452
286,1531,3083
305,1725,2712
328,1789,2358
404,2385,2947
299,2561,1974
581,2999,5004
33,196,439
75,731,543
333,1526,5275
291,2147,1785
180,978,1892
43,187,474
563,3212,4857
227,1615,1495
119,465,1518
136,553,1683
256,1698,2305
344,2353,2083
528,2360,4936
47,298,468
402,1900,3448
443,2160,3237
329,1613,3662
125,541,1577
306,1456,3708
301,2047,2336
284,1389,3011
431,2620,2514
342,1599,3277
538,2711,4570
322,1263,3849
208,1556,1043
208,900,2660
306,2008,1929
680,3155,7309
75,555,601
350,2029,2500
185,960,1903
385,2484,2179
315,1825,2490
122,549,1886
201,1508,1289
319,1856,2793
435,2861,3368
271,1460,2347
96,494,1444
42,253,553
33,111,502
368,1630,3600
886,4927,6359
271,1456,2280
297,1546,2240
270,1414,1538
151,1051,1468
330,1507,3075
310,1964,2002
145,875,1401
308,1425,2310
596,4024,4868
482,2478,4355
516,2652,4889
86,343,1687
514,3972,2569
355,1853,3518
352,2201,4396
469,2614,3997
248,1812,1187
233,1360,1807
500,2538,4294
531,3290,2786
398,2043,3742
344,2043,2416
263,1262,3432
191,1227,1472
153,929,1330
218,1512,1532
668,3934,6119
413,2149,3807
900,4197,8106
270,1675,1973
182,887,2491
130,678,2009
600,3043,4878
355,2443,1511
451,2114,4806
360,2416,2010
225,1061,3047
296,1368,3011
380,2275,1952
257,1627,1916
587,3257,4905
70,334,516
366,1397,3949
332,2017,2244
32,213,277
235,1675,2113
633,3598,7527
118,706,1311
194,1341,1539
387,2552,2994
76,754,178
150,627,2204
132,751,1589
308,2007,2521
302,1519,2638
328,1596,3102
136,799,1154
365,1529,1997
102,597,863
194,892,2340
106,540,897
343,1669,2778
218,959,1975
336,2134,2394
583,3289,3682
138,707,1555
471,2240,4131
352,2622,2475
261,1515,1360
232,1286,2070
277,996,3302
122,1087,759
416,2734,2572
82,453,1349
321,2163,1969
287,2050,1758
91,566,700
66,540,435
313,1919,2516
317,1768,2688
284,1110,3309
397,2775,1916
269,1813,1635
130,775,1635
277,1483,1725
100,774,692
348,1618,5988
616,3760,3795
368,2708,1434
359,1701,3354
494,2258,6786
439,2781,3002
263,1030,3131
301,1219,3420
267,1887,1758
412,2900,2373
137,1216,660
374,1857,5264
478,2669,2828
629,2969,5355
340,1544,4144
336,1917,3679
158,864,1978
96,785,521
42,160,704
226,1543,1897
466,2028,3883
545,3941,3732
409,1638,5591
385,1738,3547
306,2336,2259
258,1079,3428
55,337,307
358,1934,3347
352,2447,2428
278,1416,3246
174,1434,1109
369,2264,2642
417,1920,3306
346,2252,2129
143,900,929
303,1682,2100
414,2269,3855
262,1396,2766
210,1222,3044
314,1415,3553
230,1323,2469
150,1164,782
26,110,375
333,1999,2791
490,2633,3185
165,716,2003
314,1476,3389
205,1032,1909
182,1596,1418
2785,13761,53580
350,1830,3529
263,1331,1652
266,1972,1402
259,1553,2789
296,1740,1926
611,3836,4836
265,1348,2561
157,573,2382
667,3938,4870
213,941,3002
300,2103,1789
101,436,1429
33,255,293
231,1486,2740
429,1997,4210
192,972,2322
49,212,442
254,1421,2262
139,873,1394
149,599,2572
307,1094,4689
296,1800,2266
358,2146,2047
235,1532,2129
169,1016,767
41,342,231
412,2457,4048
30,146,352
331,1880,2211
117,482,1801
340,1684,2292
19,43,330
279,2273,1368
372,1854,3594
374,2450,2408
181,1354,2414
225,1367,1708
86,689,1259
159,640,2535
133,580,1570
296,1714,2085
221,950,3422
398,1905,3673
301,1277,2813
9,4,91
269,969,3166
223,1443,1826
233,1425,2015
314,2095,2387
222,1779,1383
102,821,1045
356,1871,3069
458,3303,2485
85,751,825
152,1156,1285
498,2468,4189
330,1991,2498
256,1931,1795
279,1709,2245
88,723,787
7,19,50
266,1266,4144
219,1150,2982
524,3098,4026
350,2203,2459
459,2961,3469
96,691,1302
182,1026,1902
143,605,2530
484,2388,5461
267,1428,2603
131,931,564
327,1608,3858
426,2503,3335
582,3749,4228
122,816,1251
273,1819,1848
345,1495,2915
471,2867,3552
305,1412,3839
329,1943,4013
208,948,2912
507,2034,6557
207,1183,1987
386,2483,3109
319,1746,3665
243,1738,1598
198,822,2943
489,3384,3872
200,1475,2268
582,2786,6562
161,514,3192
440,2646,3277
354,1857,3527
416,2554,2952
310,1684,2039
390,2120,3253
341,1884,4167
96,691,1015
174,1475,1729
134,902,1226
453,2544,4587
206,1356,2178
447,3750,2281
162,809,1564
275,978,4807
583,3077,4846
22,111,326
548,3690,4322
157,1029,1350
158,843,1793
328,1944,2595
199,997,2488
151,1133,1104
213,1184,2413
153,873,1630
263,1282,3166
405,3044,2413
281,1573,2326
368,1670,3155
483,3153,3121
97,558,984
290,1397,2210
440,3150,2237
380,2155,4238
84,273,1559
257,1243,3516
217,1198,2512
467,2706,3326
410,1825,4745
139,613,2278
166,768,1747
197,1336,2533
229,1507,2348
263,1376,3119
302,1851,2058
339,2358,3006
226,1349,3024
241,1844,1582
174,940,2772
326,1861,2536
385,2106,3433
351,1774,3246
247,2249,1224
235,1235,3559
119,414,1751
595,3381,4540
95,608,1147
496,2221,6779
109,645,1390
142,1072,1394
550,2870,5217
222,1265,2027
497,2874,5552
110,588,1608
335,2184,1915
299,1754,2442
232,1333,3280
195,1109,2444
341,2104,2552
363,1594,3995
735,3991,9625
457,3084,2395
48,324,367
322,1956,3119
405,2955,4782
164,1277,1861
