Initialize SIGNATURE TABLE
ST_SET: 1
ST_WAY: 256
ST_TAG_BIT: 16
ST_TAG_MASK: ffff

Initialize PATTERN TABLE
PT_SET: 512
PT_WAY: 4
SIG_DELTA_BIT: 7
C_SIG_BIT: 4
C_DELTA_BIT: 4

Initialize PREFETCH FILTER
FILTER_SET: 1024

*** ChampSim Multicore Out-of-Order Simulator ***

Warmup Instructions: 50000000
Simulation Instructions: 50000000
Number of CPUs: 1
LLC sets: 2048
LLC ways: 16
Off-chip DRAM Size: 4096 MB Channels: 1 Width: 64-bit Data Rate: 3200 MT/s

CPU 0 runs /ChampSim-master-BTBX/dpc3_traces/server_038.champsimtrace.xz
Basic BTB sets: 4096 ways: 4 indirect buffer size: 4096 RAS size: 64
CPU 0 L1D next line prefetcher
Heartbeat CPU 0 instructions: 10000001 cycles: 3323972 heartbeat IPC: 3.00845 cumulative IPC: 3.00845 (Simulation time: 0 hr 0 min 18 sec) 
Heartbeat CPU 0 instructions: 20000003 cycles: 6650886 heartbeat IPC: 3.00579 cumulative IPC: 3.00712 (Simulation time: 0 hr 0 min 36 sec) 
Heartbeat CPU 0 instructions: 30000003 cycles: 9974158 heartbeat IPC: 3.00908 cumulative IPC: 3.00777 (Simulation time: 0 hr 0 min 55 sec) 
Heartbeat CPU 0 instructions: 40000001 cycles: 13301814 heartbeat IPC: 3.00512 cumulative IPC: 3.00711 (Simulation time: 0 hr 1 min 13 sec) 
Heartbeat CPU 0 instructions: 50000001 cycles: 16627373 heartbeat IPC: 3.00701 cumulative IPC: 3.00709 (Simulation time: 0 hr 1 min 31 sec) 

Warmup complete CPU 0 instructions: 50000001 cycles: 16627373 (Simulation time: 0 hr 1 min 31 sec) 

Heartbeat CPU 0 instructions: 60000000 cycles: 26818815 heartbeat IPC: 0.981215 cumulative IPC: 0.981215 (Simulation time: 0 hr 1 min 48 sec) 
Heartbeat CPU 0 instructions: 70000001 cycles: 36963296 heartbeat IPC: 0.985758 cumulative IPC: 0.983481 (Simulation time: 0 hr 2 min 5 sec) 
Heartbeat CPU 0 instructions: 80000001 cycles: 47127317 heartbeat IPC: 0.983863 cumulative IPC: 0.983608 (Simulation time: 0 hr 2 min 23 sec) 
Heartbeat CPU 0 instructions: 90000001 cycles: 57290318 heartbeat IPC: 0.983961 cumulative IPC: 0.983697 (Simulation time: 0 hr 2 min 40 sec) 
*** Reached end of trace for Core: 0 Repeating trace: /ChampSim-master-BTBX/dpc3_traces/server_038.champsimtrace.xz
Heartbeat CPU 0 instructions: 100000002 cycles: 67476964 heartbeat IPC: 0.981677 cumulative IPC: 0.983292 (Simulation time: 0 hr 2 min 57 sec) 
Finished CPU 0 instructions: 50000001 cycles: 50849591 cumulative IPC: 0.983292 (Simulation time: 0 hr 2 min 57 sec) 

ChampSim completed all CPUs

Region of Interest Statistics

CPU 0
XXX cumulative-IPC 0.983292
XXX instructions 50000001
XXX cycles 50849591
L1D TOTAL     ACCESS:   20643562  HIT:   19659894  MISS:     983668
L1D LOAD      ACCESS:    7274234  HIT:    6784119  MISS:     490115
L1D RFO       ACCESS:    6283006  HIT:    6217003  MISS:      66003
L1D PREFETCH  ACCESS:    7086322  HIT:    6658772  MISS:     427550
L1D WRITEBACK ACCESS:          0  HIT:          0  MISS:          0
L1D PREFETCH  REQUESTED:    7310099  ISSUED:    7199614
XXX L1D-USEFUL 120162
XXX L1D-USELESS 307391
L1D AVERAGE MISS LATENCY: 29.4188 cycles
L1I TOTAL     ACCESS:   14474976  HIT:    9516288  MISS:    4958688
L1I LOAD      ACCESS:    9344877  HIT:    6392626  MISS:    2952251
L1I RFO       ACCESS:          0  HIT:          0  MISS:          0
L1I PREFETCH  ACCESS:    5130099  HIT:    3123662  MISS:    2006437
L1I WRITEBACK ACCESS:          0  HIT:          0  MISS:          0
L1I PREFETCH  REQUESTED:    9502083  ISSUED:    9502083
XXX L1I-USEFUL 1191057
XXX L1I-USELESS 815387
L1I AVERAGE MISS LATENCY: 13.0454 cycles
L2C TOTAL     ACCESS:    9315553  HIT:    8980287  MISS:     335266
L2C LOAD      ACCESS:    3067848  HIT:    2914542  MISS:     153306
L2C RFO       ACCESS:      65816  HIT:      35653  MISS:      30163
L2C PREFETCH  ACCESS:    5889235  HIT:    5739326  MISS:     149909
L2C WRITEBACK ACCESS:     292654  HIT:     290766  MISS:       1888
L2C PREFETCH  REQUESTED:    7296180  ISSUED:    7291593
XXX L2C-USEFUL 6982
XXX L2C-USELESS 142847
L2C AVERAGE MISS LATENCY: 44.4967 cycles
LLC TOTAL     ACCESS:    1701642  HIT:    1646498  MISS:      55144
LLC LOAD      ACCESS:     153291  HIT:     140625  MISS:      12666
LLC RFO       ACCESS:      30163  HIT:      25031  MISS:       5132
LLC PREFETCH  ACCESS:    1365381  HIT:    1328480  MISS:      36901
LLC WRITEBACK ACCESS:     152807  HIT:     152362  MISS:        445
LLC PREFETCH  REQUESTED:          0  ISSUED:          0
XXX LLC-USEFUL 3303
XXX LLC-USELESS 31442
LLC AVERAGE MISS LATENCY: 164.189 cycles
Major fault: 0 Minor fault: 5529
XXX disp-0 2477989
XXX disp-1 0
XXX disp-2 0
XXX disp-3 307698
XXX disp-4 921404
XXX disp-5 716116
XXX disp-6 1074521
XXX disp-7 701088
XXX disp-8 759076
XXX disp-9 489989
XXX disp-10 319082
XXX disp-11 275887
XXX disp-12 142267
XXX disp-13 144451
XXX disp-14 173243
XXX disp-15 185479
XXX disp-16 231336
XXX disp-17 96990
XXX disp-18 290216
XXX disp-19 165741
XXX disp-20 153410
XXX disp-21 73067
XXX disp-22 20269
XXX disp-23 341499
XXX disp-24 0
XXX disp-25 0
XXX disp-26 0
XXX disp-27 0
XXX disp-28 0
XXX disp-29 0
XXX disp-30 0
XXX disp-31 0
XXX disp-32 0
XXX disp-33 0
XXX disp-34 0
XXX disp-35 0
XXX disp-36 0
XXX disp-37 0
XXX disp-38 0
XXX disp-39 0
XXX disp-40 0
XXX disp-41 0
XXX disp-42 0
XXX disp-43 0
XXX disp-44 0
XXX disp-45 0
XXX disp-46 119315
XXX disp-47 0
XXX disp-48 0
XXX disp-49 0
XXX disp-50 0
XXX disp-51 0
XXX disp-52 0
XXX disp-53 0
XXX disp-54 0
XXX disp-55 0
XXX disp-56 0
XXX disp-57 0
XXX disp-58 0
XXX disp-59 0
XXX disp-60 0
XXX disp-61 0
XXX disp-62 0
XXX disp-63 0
XXX disp-64 0
XXX disp-65 0
XXX diffBits-0 2477989
XXX diffBits-1 0
XXX diffBits-2 78143
XXX diffBits-3 421291
XXX diffBits-4 608184
XXX diffBits-5 622641
XXX diffBits-6 967472
XXX diffBits-7 753807
XXX diffBits-8 655966
XXX diffBits-9 547447
XXX diffBits-10 391854
XXX diffBits-11 413429
XXX diffBits-12 145074
XXX diffBits-13 142395
XXX diffBits-14 147954
XXX diffBits-15 187634
XXX diffBits-16 364815
XXX diffBits-17 47077
XXX diffBits-18 171973
XXX diffBits-19 347225
XXX diffBits-20 178112
XXX diffBits-21 41281
XXX diffBits-22 349055
XXX diffBits-23 0
XXX diffBits-24 0
XXX diffBits-25 0
XXX diffBits-26 0
XXX diffBits-27 0
XXX diffBits-28 0
XXX diffBits-29 0
XXX diffBits-30 0
XXX diffBits-31 0
XXX diffBits-32 0
XXX diffBits-33 0
XXX diffBits-34 0
XXX diffBits-35 0
XXX diffBits-36 0
XXX diffBits-37 0
XXX diffBits-38 0
XXX diffBits-39 0
XXX diffBits-40 0
XXX diffBits-41 0
XXX diffBits-42 0
XXX diffBits-43 0
XXX diffBits-44 0
XXX diffBits-45 119315
XXX diffBits-46 0
XXX diffBits-47 0
XXX diffBits-48 0
XXX diffBits-49 0
XXX diffBits-50 0
XXX diffBits-51 0
XXX diffBits-52 0
XXX diffBits-53 0
XXX diffBits-54 0
XXX diffBits-55 0
XXX diffBits-56 0
XXX diffBits-57 0
XXX diffBits-58 0
XXX diffBits-59 0
XXX diffBits-60 0
XXX diffBits-61 0
XXX diffBits-62 0
XXX diffBits-63 0
XXX diffBits-64 0
XXX diffBits-65 0
CPU 0 L1D next line prefetcher final stats

DRAM Statistics
 CHANNEL 0
 RQ ROW_BUFFER_HIT:       8278  ROW_BUFFER_MISS:      46415
 DBUS_CONGESTED:      24418
 WQ ROW_BUFFER_HIT:       1261  ROW_BUFFER_MISS:      11903  FULL:          0

 AVG_CONGESTED_CYCLE: 5

CPU 0 Branch Prediction Accuracy: 97.111% MPKI: 5.1964 Average ROB Occupancy at Mispredict: 60.4488

XXX total_mispredicts 259820
XXX total_target_mispredicts1 251851
XXX total_target_mispredicts2 1682
XXX total_direction_mispredicts 6287
XXX mispredict_on_btb_hit 197689
XXX NOT_BRANCH: 0
XXX BRANCH_DIRECT_JUMP: 0
XXX BRANCH_INDIRECT: 0
XXX BRANCH_CONDITIONAL: 0
XXX BRANCH_DIRECT_CALL: 0
XXX BRANCH_INDIRECT_CALL: 44717
XXX BRANCH_RETURN: 152972
XXX BRANCH_OTHER: 0
Branch types
NOT_BRANCH: 41006113 82.0122%
BRANCH_DIRECT_JUMP: 541911 1.08382%
BRANCH_INDIRECT: 59690 0.11938%
BRANCH_CONDITIONAL: 5915821 11.8316%
BRANCH_DIRECT_CALL: 1003583 2.00717%
BRANCH_INDIRECT_CALL: 234499 0.468998%
BRANCH_RETURN: 1238061 2.47612%
BRANCH_OTHER: 0 0%

XXX BTB_reads: 3118956
XXX BTB_writes: 55844
XXX PageBTB_reads: 0
XXX PageBTB_writes: 0
XXX PageBTB_readsBeforeWrite: 0
XXX RegionBTB_reads: 0
XXX RegionBTB_writes: 0
XXX RegionBTB_readsBeforeWrite: 0
XXX BTB_4D_Hits 553156
XXX BTB_6D_Hits 795468
XXX BTB_8D_Hits 973831
XXX BTB_12D_Hits 542093
XXX BTB_18D_Hits 701118
XXX BTB_25D_Hits 191043
XXX BTB_46D_Hits 37219
XXX BTB_Ret_Hits 1237901
XXX BTB_4D_Misses 17
XXX BTB_6D_Misses 21
XXX BTB_8D_Misses 190
XXX BTB_12D_Misses 4068
XXX BTB_18D_Misses 1206
XXX BTB_25D_Misses 20376
XXX BTB_46D_Misses 29806
XXX BTB_Ret_Misses 160
XXX Num_unique_branches 3917
total instructions: 0
wc,tif,trb
2,5,25
7,13,42
4,10,50
4,7,28
5,26,68
5,11,30
11,56,59
2,5,20
9,29,66
12,69,191
1180,11033,14667
10,40,170
6,36,65
13,85,150
4,5,57
3,3,28
5,5,36
3,2,7
8,28,125
3,5,10
17,112,147
2,0,5
5,5,40
2,1,6
10,27,78
4,9,47
8,23,57
2,2,18
9,55,125
6,14,57
10,32,180
3,4,16
5,7,28
6,20,40
4,7,28
4,5,30
5,3,39
5,12,32
4,1,22
5,17,45
4,10,10
7005,46692,107407
4,5,22
6,15,29
5,3,53
3,3,13
3,5,26
7,22,33
23,105,349
17,87,242
2,1,10
6,24,47
8,39,41
5,13,40
3,9,30
6,17,58
3,1,27
3,6,42
4,15,47
5,1,45
5,6,49
6,17,34
6,4,65
1,0,7
5,12,17
7,12,64
5,9,37
3,0,30
8,42,38
4,7,35
6,19,41
6,9,51
9,29,101
2,1,14
4,4,35
3,2,14
6,10,55
3,5,8
4,3,18
4,10,54
4,7,41
3,4,26
20,110,150
4,2,19
430,3274,6122
4,7,32
4,3,38
34,239,491
7,18,87
5,10,36
3,3,32
7,15,46
6,8,63
2,1,6
8,30,50
1029,7317,15136
3,3,28
2,1,3
6,22,47
5,6,54
4,3,17
5,15,41
2,5,21
7,11,44
4,5,22
3,1,19
7,22,53
4,5,32
1,5,14
5,6,25
6,11,39
7,20,35
5,9,16
7,16,39
5,9,34
9,24,122
3,4,35
4,4,14
4,5,34
6,22,38
5,5,36
2,4,16
6,14,32
4,8,29
867,3892,17737
3,4,31
12,54,125
764,6593,10166
8,15,65
6,18,51
6,8,28
5,2,27
12,97,49
2,3,31
2,3,23
4,5,23
5,11,24
4,9,35
3,4,16
5,14,27
6,9,42
7,23,53
4,3,46
6,11,25
6,17,19
5,8,59
3,2,18
14,119,114
5,8,27
7,23,57
4,12,22
7,35,40
10,59,83
3,11,24
3,2,23
3,4,37
8,42,38
3,16,33
16,59,244
5,34,37
5,18,21
3,8,36
5,28,43
5,5,44
5,10,45
4,10,21
2,10,34
0,0,0
3,3,24
4,6,22
4,13,33
4,7,33
9,45,63
5,19,27
3,4,33
2,6,13
1,5,20
5,13,33
4,8,8
6,29,42
7,21,34
3,6,22
2,3,13
4,8,26
7,11,64
6,22,49
4,7,24
3,3,25
2,2,9
2,10,34
3,6,38
3,0,16
8,34,46
4,2,18
3,0,11
2,0,20
5,10,56
4,1,33
5,10,15
5,4,45
7,6,63
13,97,154
6,9,27
3,2,11
4,9,75
3,3,13
4,7,27
3,2,18
7,28,27
7,14,41
2,0,9
8,45,83
2,5,21
7,20,79
5,6,35
14,75,235
5,7,24
6,15,45
4,6,49
2,5,27
6,22,49
3,4,9
3,4,12
16,50,211
5,3,24
2,1,8
3,3,13
5,5,20
245,962,5063
6,8,40
4,15,38
2,0,4
6,25,39
514,2306,10389
7,7,48
7,10,70
10,34,108
14,60,62
5,12,39
4,9,19
4,10,20
2,0,11
4,12,36
3,2,30
6,4,40
9,52,67
5,16,11
5,17,40
18,91,135
1,1,10
6,15,33
3,1,38
12,111,87
3,4,35
3,5,40
5,11,18
7,32,43
6,11,50
3,14,30
5,24,40
3,4,24
849,2976,18206
3,4,49
5,5,34
7,19,36
3,5,25
2,4,25
14,58,172
5,8,37
5,6,19
3,0,24
4,2,23
13,70,168
4,1,21
8,41,39
5,23,41
287,1142,5994
4,5,40
6,15,21
2,2,18
4,11,28
3,3,20
5,20,51
5,6,44
2,5,27
4,6,21
8,53,27
5,13,42
5,8,52
6,13,23
3,3,45
7,17,38
5,2,23
5,15,31
2,0,4
4,8,12
2,5,23
5,10,42
15,122,139
7,31,67
5,7,18
4,0,35
5,12,34
5,12,34
6,10,45
13,129,121
0,0,0
3,4,28
2,3,6
4,3,36
7,22,104
4,1,19
2,2,14
3,7,28
2,0,12
3,9,26
4,5,32
5,17,52
2,4,30
4,10,42
2,7,19
4,5,32
4,12,22
6,12,36
5,13,44
3,6,38
5,11,42
3,5,4
11,70,66
4,2,30
8,23,75
6,11,25
4,16,32
4,25,39
5,11,46
5,11,29
1,1,8
2,5,27
6,20,35
5,10,45
2,2,14
928,9003,10989
19,98,165
5,5,27
2,1,8
4,6,14
5,4,55
3,2,14
6,20,62
4,14,14
5,10,41
5,25,46
2,0,4
1,0,0
6,13,31
6,13,47
897,8652,5375
8,34,46
6,5,31
5,7,25
4,8,48
5,3,41
8,32,48
2,3,27
7,19,50
7,19,56
4,8,31
5,14,55
5,6,45
19,160,181
5,13,47
5,8,49
5,7,36
5,11,32
27,213,102
11,86,83
3,6,22
4,4,35
4,10,48
3,3,25
1065,8458,8505
0,0,0
8,47,80
2,3,25
4,7,43
3,5,8
667,3541,13069
4,27,37
3,4,37
6,10,26
1,1,10
7,7,68
4,1,24
16,88,132
5,11,25
16,62,248
5,4,46
6,19,25
2,1,8
2,8,22
29,182,217
7,14,61
18,98,222
7,12,43
7,6,63
263,1078,3497
8,34,46
6,16,120
9,60,73
4,9,28
7,12,61
7,20,55
8,46,100
5,12,59
4,11,24
5,6,35
5,6,19
4,10,45
5,20,44
5,22,46
4,6,35
2,0,12
12,64,116
21,123,151
5,14,44
2,6,17
4,4,44
4,21,35
6,20,70
6,5,55
4,7,31
6,17,38
16,70,210
2,11,33
7,6,70
7,24,56
6,11,53
33,112,487
6,12,49
4,7,17
16987,131418,241771
6,16,34
3,20,35
3,10,41
1388,9823,20051
2,1,18
5,3,36
7,27,49
6,16,50
5,11,14
8,33,47
3,3,17
6,13,54
4,13,38
8,34,46
7,26,49
6,13,38
5,9,35
10,23,143
7,23,32
5,3,57
10,65,99
5,13,54
5,27,44
4,9,51
3,3,18
4,8,27
2,4,0
4,7,49
2,6,20
12,35,169
4,3,40
3,2,33
5,21,50
10,82,89
4,8,38
12,61,87
8,24,56
7,16,39
5,8,23
4,3,33
2,2,17
6,16,39
7,28,47
4,2,28
4,5,19
7,16,45
1,3,22
4,7,13
4352,26099,82635
6,13,38
5,16,44
2,0,24
19,104,221
4,9,42
4,18,37
8,48,66
5,17,47
7,15,75
14,97,150
5,9,37
8,21,59
23,147,196
1,0,0
4,22,38
4,15,45
6,21,48
5,8,58
1259,9631,18035
3,19,36
11,60,109
5,21,41
