Initialize SIGNATURE TABLE
ST_SET: 1
ST_WAY: 256
ST_TAG_BIT: 16
ST_TAG_MASK: ffff

Initialize PATTERN TABLE
PT_SET: 512
PT_WAY: 4
SIG_DELTA_BIT: 7
C_SIG_BIT: 4
C_DELTA_BIT: 4

Initialize PREFETCH FILTER
FILTER_SET: 1024

*** ChampSim Multicore Out-of-Order Simulator ***

Warmup Instructions: 50000000
Simulation Instructions: 50000000
Number of CPUs: 1
LLC sets: 2048
LLC ways: 16
Off-chip DRAM Size: 4096 MB Channels: 1 Width: 64-bit Data Rate: 3200 MT/s

CPU 0 runs /ChampSim-master-BTBX/dpc3_traces/server_014.champsimtrace.xz
Basic BTB sets: 4096 ways: 4 indirect buffer size: 4096 RAS size: 64
CPU 0 L1D next line prefetcher
Heartbeat CPU 0 instructions: 10000003 cycles: 3519504 heartbeat IPC: 2.84131 cumulative IPC: 2.84131 (Simulation time: 0 hr 0 min 17 sec) 
Heartbeat CPU 0 instructions: 20000000 cycles: 7106240 heartbeat IPC: 2.78805 cumulative IPC: 2.81443 (Simulation time: 0 hr 0 min 35 sec) 
Heartbeat CPU 0 instructions: 30000001 cycles: 10647750 heartbeat IPC: 2.82365 cumulative IPC: 2.8175 (Simulation time: 0 hr 0 min 52 sec) 
Heartbeat CPU 0 instructions: 40000003 cycles: 14195968 heartbeat IPC: 2.81832 cumulative IPC: 2.8177 (Simulation time: 0 hr 1 min 10 sec) 
Heartbeat CPU 0 instructions: 50000000 cycles: 17744645 heartbeat IPC: 2.81795 cumulative IPC: 2.81775 (Simulation time: 0 hr 1 min 28 sec) 

Warmup complete CPU 0 instructions: 50000001 cycles: 17744646 (Simulation time: 0 hr 1 min 28 sec) 

Heartbeat CPU 0 instructions: 60000000 cycles: 28125936 heartbeat IPC: 0.963271 cumulative IPC: 0.963271 (Simulation time: 0 hr 1 min 47 sec) 
Heartbeat CPU 0 instructions: 70000000 cycles: 38504397 heartbeat IPC: 0.963534 cumulative IPC: 0.963403 (Simulation time: 0 hr 2 min 6 sec) 
*** Reached end of trace for Core: 0 Repeating trace: /ChampSim-master-BTBX/dpc3_traces/server_014.champsimtrace.xz
Heartbeat CPU 0 instructions: 80000001 cycles: 48979163 heartbeat IPC: 0.954675 cumulative IPC: 0.960476 (Simulation time: 0 hr 2 min 25 sec) 
Heartbeat CPU 0 instructions: 90000003 cycles: 60543130 heartbeat IPC: 0.864755 cumulative IPC: 0.934613 (Simulation time: 0 hr 2 min 44 sec) 
Heartbeat CPU 0 instructions: 100000001 cycles: 71078027 heartbeat IPC: 0.949226 cumulative IPC: 0.937499 (Simulation time: 0 hr 3 min 3 sec) 
Finished CPU 0 instructions: 50000000 cycles: 53333381 cumulative IPC: 0.937499 (Simulation time: 0 hr 3 min 3 sec) 

ChampSim completed all CPUs

Region of Interest Statistics

CPU 0
XXX cumulative-IPC 0.937499
XXX instructions 50000000
XXX cycles 53333381
L1D TOTAL     ACCESS:   22495029  HIT:   22424152  MISS:      70877
L1D LOAD      ACCESS:    7065684  HIT:    7039010  MISS:      26674
L1D RFO       ACCESS:    8510099  HIT:    8478025  MISS:      32074
L1D PREFETCH  ACCESS:    6919246  HIT:    6907117  MISS:      12129
L1D WRITEBACK ACCESS:          0  HIT:          0  MISS:          0
L1D PREFETCH  REQUESTED:    7078021  ISSUED:    6978527
XXX L1D-USEFUL 3564
XXX L1D-USELESS 8565
L1D AVERAGE MISS LATENCY: 208.998 cycles
L1I TOTAL     ACCESS:   15077630  HIT:   12510709  MISS:    2566921
L1I LOAD      ACCESS:   10042227  HIT:    8383914  MISS:    1658313
L1I RFO       ACCESS:          0  HIT:          0  MISS:          0
L1I PREFETCH  ACCESS:    5035403  HIT:    4126795  MISS:     908608
L1I WRITEBACK ACCESS:          0  HIT:          0  MISS:          0
L1I PREFETCH  REQUESTED:    7596495  ISSUED:    7596495
XXX L1I-USEFUL 482462
XXX L1I-USELESS 426134
L1I AVERAGE MISS LATENCY: 13.7324 cycles
L2C TOTAL     ACCESS:    3817386  HIT:    3745057  MISS:      72329
L2C LOAD      ACCESS:    1577262  HIT:    1561373  MISS:      15889
L2C RFO       ACCESS:      32039  HIT:       1079  MISS:      30960
L2C PREFETCH  ACCESS:    2169713  HIT:    2144250  MISS:      25463
L2C WRITEBACK ACCESS:      38372  HIT:      38355  MISS:         17
L2C PREFETCH  REQUESTED:    2544866  ISSUED:    2544866
XXX L2C-USEFUL 2601
XXX L2C-USELESS 22565
L2C AVERAGE MISS LATENCY: 238.855 cycles
LLC TOTAL     ACCESS:     476079  HIT:     410305  MISS:      65774
LLC LOAD      ACCESS:      15262  HIT:       4780  MISS:      10482
LLC RFO       ACCESS:      30960  HIT:       4443  MISS:      26517
LLC PREFETCH  ACCESS:     394960  HIT:     366275  MISS:      28685
LLC WRITEBACK ACCESS:      34897  HIT:      34807  MISS:         90
LLC PREFETCH  REQUESTED:          0  ISSUED:          0
XXX LLC-USEFUL 4336
XXX LLC-USELESS 24650
LLC AVERAGE MISS LATENCY: 276.555 cycles
Major fault: 0 Minor fault: 1914
XXX disp-0 2588880
XXX disp-1 0
XXX disp-2 22
XXX disp-3 257520
XXX disp-4 786795
XXX disp-5 871001
XXX disp-6 1386723
XXX disp-7 629525
XXX disp-8 656854
XXX disp-9 498772
XXX disp-10 379483
XXX disp-11 401726
XXX disp-12 99194
XXX disp-13 75453
XXX disp-14 220253
XXX disp-15 187509
XXX disp-16 122992
XXX disp-17 18269
XXX disp-18 89006
XXX disp-19 329828
XXX disp-20 160610
XXX disp-21 128942
XXX disp-22 90
XXX disp-23 511935
XXX disp-24 0
XXX disp-25 0
XXX disp-26 0
XXX disp-27 0
XXX disp-28 0
XXX disp-29 0
XXX disp-30 0
XXX disp-31 0
XXX disp-32 0
XXX disp-33 0
XXX disp-34 0
XXX disp-35 0
XXX disp-36 0
XXX disp-37 0
XXX disp-38 0
XXX disp-39 0
XXX disp-40 0
XXX disp-41 0
XXX disp-42 0
XXX disp-43 0
XXX disp-44 0
XXX disp-45 0
XXX disp-46 0
XXX disp-47 4300
XXX disp-48 0
XXX disp-49 0
XXX disp-50 0
XXX disp-51 0
XXX disp-52 0
XXX disp-53 0
XXX disp-54 0
XXX disp-55 0
XXX disp-56 0
XXX disp-57 0
XXX disp-58 0
XXX disp-59 0
XXX disp-60 0
XXX disp-61 0
XXX disp-62 0
XXX disp-63 0
XXX disp-64 0
XXX disp-65 0
XXX diffBits-0 2588880
XXX diffBits-1 0
XXX diffBits-2 130217
XXX diffBits-3 360645
XXX diffBits-4 580551
XXX diffBits-5 1180332
XXX diffBits-6 807349
XXX diffBits-7 578982
XXX diffBits-8 646087
XXX diffBits-9 547682
XXX diffBits-10 543028
XXX diffBits-11 477167
XXX diffBits-12 73354
XXX diffBits-13 63678
XXX diffBits-14 120434
XXX diffBits-15 73877
XXX diffBits-16 90138
XXX diffBits-17 4561
XXX diffBits-18 57936
XXX diffBits-19 596882
XXX diffBits-20 241749
XXX diffBits-21 125882
XXX diffBits-22 511971
XXX diffBits-23 0
XXX diffBits-24 0
XXX diffBits-25 0
XXX diffBits-26 0
XXX diffBits-27 0
XXX diffBits-28 0
XXX diffBits-29 0
XXX diffBits-30 0
XXX diffBits-31 0
XXX diffBits-32 0
XXX diffBits-33 0
XXX diffBits-34 0
XXX diffBits-35 0
XXX diffBits-36 0
XXX diffBits-37 0
XXX diffBits-38 0
XXX diffBits-39 0
XXX diffBits-40 0
XXX diffBits-41 0
XXX diffBits-42 0
XXX diffBits-43 0
XXX diffBits-44 0
XXX diffBits-45 0
XXX diffBits-46 4300
XXX diffBits-47 0
XXX diffBits-48 0
XXX diffBits-49 0
XXX diffBits-50 0
XXX diffBits-51 0
XXX diffBits-52 0
XXX diffBits-53 0
XXX diffBits-54 0
XXX diffBits-55 0
XXX diffBits-56 0
XXX diffBits-57 0
XXX diffBits-58 0
XXX diffBits-59 0
XXX diffBits-60 0
XXX diffBits-61 0
XXX diffBits-62 0
XXX diffBits-63 0
XXX diffBits-64 0
XXX diffBits-65 0
CPU 0 L1D next line prefetcher final stats

DRAM Statistics
 CHANNEL 0
 RQ ROW_BUFFER_HIT:      27892  ROW_BUFFER_MISS:      37789
 DBUS_CONGESTED:      62921
 WQ ROW_BUFFER_HIT:       8627  ROW_BUFFER_MISS:      23912  FULL:          0

 AVG_CONGESTED_CYCLE: 6

CPU 0 Branch Prediction Accuracy: 99.1204% MPKI: 1.4972 Average ROB Occupancy at Mispredict: 136.467

XXX total_mispredicts 74860
XXX total_target_mispredicts1 58317
XXX total_target_mispredicts2 3801
XXX total_direction_mispredicts 12742
XXX mispredict_on_btb_hit 51761
XXX NOT_BRANCH: 0
XXX BRANCH_DIRECT_JUMP: 0
XXX BRANCH_INDIRECT: 57
XXX BRANCH_CONDITIONAL: 0
XXX BRANCH_DIRECT_CALL: 0
XXX BRANCH_INDIRECT_CALL: 13098
XXX BRANCH_RETURN: 38606
XXX BRANCH_OTHER: 0
Branch types
NOT_BRANCH: 41488961 82.9779%
BRANCH_DIRECT_JUMP: 449417 0.898834%
BRANCH_INDIRECT: 2330 0.00466%
BRANCH_CONDITIONAL: 5470015 10.94%
BRANCH_DIRECT_CALL: 1172185 2.34437%
BRANCH_INDIRECT_CALL: 122383 0.244766%
BRANCH_RETURN: 1294551 2.5891%
BRANCH_OTHER: 0 0%

XXX BTB_reads: 941712
XXX BTB_writes: 10357
XXX PageBTB_reads: 0
XXX PageBTB_writes: 0
XXX PageBTB_readsBeforeWrite: 0
XXX RegionBTB_reads: 0
XXX RegionBTB_writes: 0
XXX RegionBTB_readsBeforeWrite: 0
XXX BTB_4D_Hits 534920
XXX BTB_6D_Hits 992349
XXX BTB_8D_Hits 884341
XXX BTB_12D_Hits 577180
XXX BTB_18D_Hits 590582
XXX BTB_25D_Hits 318125
XXX BTB_46D_Hits 1931
XXX BTB_Ret_Hits 1293348
XXX BTB_4D_Misses 915
XXX BTB_6D_Misses 617
XXX BTB_8D_Misses 1531
XXX BTB_12D_Misses 1332
XXX BTB_18D_Misses 958
XXX BTB_25D_Misses 2348
XXX BTB_46D_Misses 1453
XXX BTB_Ret_Misses 1203
XXX Num_unique_branches 13861
total instructions: 0
wc,tif,trb
29,83,267
39,194,352
40,233,255
46,212,554
49,242,351
55,319,515
32,161,323
32,158,316
31,159,224
52,277,518
33,160,291
60,245,629
68,284,522
24,110,185
22,109,198
29,135,166
33,134,406
75,481,458
31,195,248
47,231,368
27,219,148
37,157,326
27,139,256
38,167,307
30,179,182
30,195,241
36,174,289
45,235,290
44,260,318
36,160,380
41,235,403
46,195,526
73,449,524
23,146,161
28,152,276
24,145,140
31,109,324
27,183,194
16,115,94
12,54,124
15,63,162
26,161,216
35,153,492
27,211,149
40,193,363
32,145,230
34,234,188
34,156,388
20,149,173
46,307,220
20,68,312
38,249,285
39,219,233
25,140,179
34,142,310
38,158,428
40,214,222
55,279,325
36,224,340
28,154,308
24,150,200
32,160,306
31,121,365
54,203,577
49,288,310
30,153,280
36,195,318
43,215,285
44,235,302
37,160,238
26,171,191
26,155,177
41,247,236
27,136,217
33,128,414
22,122,168
53,282,481
23,123,171
41,144,543
26,147,175
41,182,462
57,331,490
26,141,237
34,133,264
61,252,589
21,87,216
31,160,347
65,339,454
45,236,543
24,136,252
39,203,332
21,72,290
31,149,326
51,227,426
34,175,415
26,135,223
52,316,505
24,153,183
27,112,237
49,190,681
37,144,279
24,146,227
47,269,370
45,292,359
41,182,364
41,223,426
27,97,302
52,236,524
29,154,225
50,226,536
33,234,228
51,307,422
49,238,403
42,219,251
73,386,591
20,161,159
25,99,336
35,170,280
46,235,384
23,95,268
33,104,293
50,214,484
31,116,393
31,126,383
48,202,550
34,175,430
32,169,283
43,187,494
41,190,293
26,135,223
37,158,330
25,140,148
47,231,394
37,204,314
33,109,334
41,225,340
54,211,541
24,89,315
46,294,281
36,191,230
55,324,397
33,151,203
30,172,344
32,144,272
57,321,582
34,187,201
39,214,341
40,200,446
38,231,186
46,185,438
40,162,348
32,163,233
38,211,389
42,214,414
53,261,573
29,153,252
45,243,312
27,101,304
30,137,271
44,189,387
21,103,146
35,121,426
44,226,271
42,194,354
23,169,174
20,84,218
46,159,463
45,303,241
30,144,358
48,228,410
47,224,431
58,320,388
20,65,229
48,240,399
34,174,268
29,165,323
38,169,278
24,170,124
31,138,373
27,96,279
41,208,330
23,132,205
37,167,394
47,192,429
31,141,348
52,271,424
44,192,423
34,169,266
37,135,465
54,297,502
44,246,258
42,181,537
17,69,227
42,257,274
41,222,386
25,125,248
43,214,412
40,221,351
55,241,508
7,28,27
42,171,436
42,172,334
42,269,348
34,169,329
27,102,223
56,281,396
55,247,443
47,195,530
52,311,292
88,421,923
37,195,374
45,229,440
29,153,285
49,301,336
53,253,537
51,280,333
38,164,421
41,173,428
42,254,226
67,315,858
27,129,260
37,168,421
34,161,337
44,297,389
31,126,364
45,150,362
18,79,146
22,80,212
36,216,280
31,155,273
29,115,203
20,76,280
32,155,259
46,209,397
53,262,386
38,210,264
27,91,358
49,261,386
28,138,252
25,145,232
33,128,313
31,121,334
10,48,121
48,221,434
26,102,192
25,113,183
52,259,387
36,149,286
33,167,326
37,132,383
44,275,346
35,170,298
29,129,290
44,215,403
15,76,159
16,104,176
59,315,420
43,208,385
28,94,304
42,187,373
49,239,336
40,241,231
29,138,202
51,247,399
30,118,296
44,208,359
37,170,384
46,297,341
51,238,585
43,172,534
31,161,310
43,198,398
23,94,184
47,330,326
34,167,205
50,310,395
28,127,393
52,303,400
39,169,391
20,80,180
44,181,430
31,210,267
40,231,437
59,282,544
33,160,301
36,160,416
31,125,362
47,213,510
54,275,549
43,183,339
40,189,342
66,332,726
52,201,588
41,190,255
23,91,281
50,224,416
34,125,285
65,392,440
33,162,362
32,155,379
38,163,316
18,96,182
28,134,266
63,316,512
26,142,223
46,241,365
41,202,304
34,167,266
29,156,223
39,127,347
45,248,399
35,161,323
27,99,290
27,134,199
8,20,60
28,156,253
47,206,440
37,120,451
37,210,369
43,182,390
41,244,325
36,159,393
42,234,279
57,239,562
24,132,193
40,175,367
36,200,321
40,168,345
18,82,131
37,129,518
18,85,151
70,342,662
28,98,264
46,296,292
56,307,506
32,137,413
40,205,385
49,276,398
46,282,300
50,299,407
69,325,635
38,193,438
61,228,562
30,94,295
26,168,250
23,98,149
39,207,374
60,275,595
21,108,233
54,213,600
43,217,419
78,452,534
44,124,475
49,253,411
61,353,467
36,122,401
29,143,210
61,273,551
35,185,376
28,134,200
54,296,297
63,331,528
37,167,302
43,178,494
42,240,230
53,291,508
25,264,101
20,101,201
42,234,362
25,103,196
40,256,237
63,285,638
48,223,337
34,114,373
22,63,264
54,321,409
49,219,489
38,195,324
31,166,218
45,212,408
44,237,375
34,178,332
25,99,330
38,142,323
29,178,196
22,143,119
14,25,187
46,223,364
29,162,244
49,249,369
36,154,408
39,268,245
34,159,328
41,181,380
60,254,449
40,177,318
39,240,345
43,238,333
63,290,540
32,159,335
44,219,344
33,122,289
31,157,281
27,119,224
40,203,390
34,191,367
26,112,268
18,106,160
47,285,329
7,19,50
53,305,444
41,179,358
38,203,275
23,155,146
57,311,636
48,322,380
36,195,292
25,161,152
22,88,198
56,295,482
15,94,107
40,190,356
58,272,511
42,202,288
32,158,278
50,207,548
30,128,239
43,204,389
53,201,399
36,167,347
32,211,202
29,156,150
45,294,261
33,144,337
19,97,162
27,109,184
40,148,262
42,233,361
50,202,387
37,176,335
37,209,277
46,330,286
50,182,518
28,175,233
23,94,191
31,191,289
31,187,186
55,238,449
35,176,242
44,263,300
44,215,358
39,235,258
39,174,243
27,87,256
49,209,716
45,205,527
56,313,335
31,129,328
46,174,466
35,168,256
52,325,606
42,183,381
36,168,386
58,244,508
42,201,274
51,192,494
56,286,388
40,190,474
47,210,370
26,156,198
36,159,371
46,257,321
30,171,248
28,151,208
40,134,382
25,147,299
33,138,479
56,256,588
57,209,682
55,186,545
21,111,176
58,291,565
43,119,367
42,212,277
27,132,295
65,382,428
12,67,120
48,200,483
39,167,296
66,282,545
37,157,372
37,273,257
49,272,508
52,230,450
51,289,371
41,188,449
25,139,306
40,236,335
48,289,332
34,184,186
28,108,293
45,154,345
32,217,332
17,54,215
53,236,651
46,182,562
53,271,544
39,210,367
65,322,678
36,191,374
42,266,427
60,315,644
