Initialize SIGNATURE TABLE
ST_SET: 1
ST_WAY: 256
ST_TAG_BIT: 16
ST_TAG_MASK: ffff

Initialize PATTERN TABLE
PT_SET: 512
PT_WAY: 4
SIG_DELTA_BIT: 7
C_SIG_BIT: 4
C_DELTA_BIT: 4

Initialize PREFETCH FILTER
FILTER_SET: 1024

*** ChampSim Multicore Out-of-Order Simulator ***

Warmup Instructions: 50000000
Simulation Instructions: 50000000
Number of CPUs: 1
LLC sets: 2048
LLC ways: 16
Off-chip DRAM Size: 4096 MB Channels: 1 Width: 64-bit Data Rate: 3200 MT/s

CPU 0 runs /ChampSim-master-BTBX/dpc3_traces/server_016.champsimtrace.xz
Basic BTB sets: 4096 ways: 4 indirect buffer size: 4096 RAS size: 64
CPU 0 L1D next line prefetcher
Heartbeat CPU 0 instructions: 10000000 cycles: 3496780 heartbeat IPC: 2.85977 cumulative IPC: 2.85977 (Simulation time: 0 hr 0 min 18 sec) 
Heartbeat CPU 0 instructions: 20000000 cycles: 6994338 heartbeat IPC: 2.85914 cumulative IPC: 2.85946 (Simulation time: 0 hr 0 min 35 sec) 
Heartbeat CPU 0 instructions: 30000001 cycles: 10486934 heartbeat IPC: 2.8632 cumulative IPC: 2.8607 (Simulation time: 0 hr 0 min 53 sec) 
Heartbeat CPU 0 instructions: 40000000 cycles: 13785066 heartbeat IPC: 3.03202 cumulative IPC: 2.90169 (Simulation time: 0 hr 1 min 5 sec) 
Heartbeat CPU 0 instructions: 50000002 cycles: 17020531 heartbeat IPC: 3.09075 cumulative IPC: 2.93763 (Simulation time: 0 hr 1 min 14 sec) 

Warmup complete CPU 0 instructions: 50000002 cycles: 17020531 (Simulation time: 0 hr 1 min 14 sec) 

Heartbeat CPU 0 instructions: 60000000 cycles: 25700341 heartbeat IPC: 1.1521 cumulative IPC: 1.1521 (Simulation time: 0 hr 1 min 25 sec) 
Heartbeat CPU 0 instructions: 70000000 cycles: 37993481 heartbeat IPC: 0.813462 cumulative IPC: 0.953609 (Simulation time: 0 hr 1 min 42 sec) 
Heartbeat CPU 0 instructions: 80000000 cycles: 50545271 heartbeat IPC: 0.796699 cumulative IPC: 0.894861 (Simulation time: 0 hr 2 min 0 sec) 
Heartbeat CPU 0 instructions: 90000000 cycles: 62596011 heartbeat IPC: 0.829825 cumulative IPC: 0.877665 (Simulation time: 0 hr 2 min 17 sec) 
Heartbeat CPU 0 instructions: 100000000 cycles: 74987790 heartbeat IPC: 0.806987 cumulative IPC: 0.862556 (Simulation time: 0 hr 2 min 34 sec) 
Finished CPU 0 instructions: 50000002 cycles: 57967260 cumulative IPC: 0.862556 (Simulation time: 0 hr 2 min 34 sec) 

ChampSim completed all CPUs

Region of Interest Statistics

CPU 0
XXX cumulative-IPC 0.862556
XXX instructions 50000002
XXX cycles 57967260
L1D TOTAL     ACCESS:   19730301  HIT:   18460464  MISS:    1269837
L1D LOAD      ACCESS:    7367073  HIT:    6804062  MISS:     563011
L1D RFO       ACCESS:    5269238  HIT:    5047944  MISS:     221294
L1D PREFETCH  ACCESS:    7093990  HIT:    6608458  MISS:     485532
L1D WRITEBACK ACCESS:          0  HIT:          0  MISS:          0
L1D PREFETCH  REQUESTED:    7414449  ISSUED:    7318922
XXX L1D-USEFUL 124367
XXX L1D-USELESS 361181
L1D AVERAGE MISS LATENCY: 24.498 cycles
L1I TOTAL     ACCESS:   13146531  HIT:   10601308  MISS:    2545223
L1I LOAD      ACCESS:    9573662  HIT:    8193002  MISS:    1380660
L1I RFO       ACCESS:          0  HIT:          0  MISS:          0
L1I PREFETCH  ACCESS:    3572869  HIT:    2408306  MISS:    1164563
L1I WRITEBACK ACCESS:          0  HIT:          0  MISS:          0
L1I PREFETCH  REQUESTED:    5711254  ISSUED:    5711254
XXX L1I-USEFUL 738311
XXX L1I-USELESS 426237
L1I AVERAGE MISS LATENCY: 13.0247 cycles
L2C TOTAL     ACCESS:    5303859  HIT:    4453651  MISS:     850208
L2C LOAD      ACCESS:    1111796  HIT:     916290  MISS:     195506
L2C RFO       ACCESS:     219326  HIT:     143255  MISS:      76071
L2C PREFETCH  ACCESS:    3544298  HIT:    2968669  MISS:     575629
L2C WRITEBACK ACCESS:     428439  HIT:     425437  MISS:       3002
L2C PREFETCH  REQUESTED:    3448312  ISSUED:    3447905
XXX L2C-USEFUL 61389
XXX L2C-USELESS 513502
L2C AVERAGE MISS LATENCY: 37.3475 cycles
LLC TOTAL     ACCESS:    1721219  HIT:    1685437  MISS:      35782
LLC LOAD      ACCESS:     195279  HIT:     191270  MISS:       4009
LLC RFO       ACCESS:      76067  HIT:      62566  MISS:      13501
LLC PREFETCH  ACCESS:    1314358  HIT:    1296189  MISS:      18169
LLC WRITEBACK ACCESS:     135515  HIT:     135412  MISS:        103
LLC PREFETCH  REQUESTED:          0  ISSUED:          0
XXX LLC-USEFUL 1745
XXX LLC-USELESS 15932
LLC AVERAGE MISS LATENCY: 164.421 cycles
Major fault: 0 Minor fault: 2374
XXX disp-0 1610602
XXX disp-1 0
XXX disp-2 1478
XXX disp-3 372183
XXX disp-4 849101
XXX disp-5 2859434
XXX disp-6 1126005
XXX disp-7 523246
XXX disp-8 583813
XXX disp-9 303749
XXX disp-10 209299
XXX disp-11 166787
XXX disp-12 83263
XXX disp-13 92196
XXX disp-14 84417
XXX disp-15 97748
XXX disp-16 42893
XXX disp-17 66454
XXX disp-18 98714
XXX disp-19 89607
XXX disp-20 97385
XXX disp-21 193531
XXX disp-22 123304
XXX disp-23 238396
XXX disp-24 112390
XXX disp-25 0
XXX disp-26 0
XXX disp-27 0
XXX disp-28 0
XXX disp-29 0
XXX disp-30 0
XXX disp-31 0
XXX disp-32 0
XXX disp-33 0
XXX disp-34 0
XXX disp-35 0
XXX disp-36 0
XXX disp-37 0
XXX disp-38 0
XXX disp-39 0
XXX disp-40 0
XXX disp-41 0
XXX disp-42 0
XXX disp-43 0
XXX disp-44 0
XXX disp-45 0
XXX disp-46 239874
XXX disp-47 0
XXX disp-48 0
XXX disp-49 0
XXX disp-50 0
XXX disp-51 0
XXX disp-52 0
XXX disp-53 0
XXX disp-54 0
XXX disp-55 0
XXX disp-56 0
XXX disp-57 0
XXX disp-58 0
XXX disp-59 0
XXX disp-60 0
XXX disp-61 0
XXX disp-62 0
XXX disp-63 1
XXX disp-64 0
XXX disp-65 0
XXX diffBits-0 1610602
XXX diffBits-1 996
XXX diffBits-2 151151
XXX diffBits-3 513720
XXX diffBits-4 568903
XXX diffBits-5 2727398
XXX diffBits-6 586690
XXX diffBits-7 859730
XXX diffBits-8 382365
XXX diffBits-9 441396
XXX diffBits-10 397524
XXX diffBits-11 231267
XXX diffBits-12 134509
XXX diffBits-13 121763
XXX diffBits-14 39511
XXX diffBits-15 70141
XXX diffBits-16 97596
XXX diffBits-17 92131
XXX diffBits-18 57297
XXX diffBits-19 79828
XXX diffBits-20 214411
XXX diffBits-21 184458
XXX diffBits-22 274901
XXX diffBits-23 0
XXX diffBits-24 0
XXX diffBits-25 187707
XXX diffBits-26 0
XXX diffBits-27 0
XXX diffBits-28 0
XXX diffBits-29 0
XXX diffBits-30 0
XXX diffBits-31 0
XXX diffBits-32 0
XXX diffBits-33 0
XXX diffBits-34 0
XXX diffBits-35 0
XXX diffBits-36 0
XXX diffBits-37 0
XXX diffBits-38 0
XXX diffBits-39 0
XXX diffBits-40 0
XXX diffBits-41 0
XXX diffBits-42 0
XXX diffBits-43 0
XXX diffBits-44 0
XXX diffBits-45 239874
XXX diffBits-46 0
XXX diffBits-47 0
XXX diffBits-48 0
XXX diffBits-49 0
XXX diffBits-50 0
XXX diffBits-51 0
XXX diffBits-52 0
XXX diffBits-53 0
XXX diffBits-54 0
XXX diffBits-55 0
XXX diffBits-56 0
XXX diffBits-57 0
XXX diffBits-58 0
XXX diffBits-59 0
XXX diffBits-60 0
XXX diffBits-61 0
XXX diffBits-62 1
XXX diffBits-63 0
XXX diffBits-64 0
XXX diffBits-65 0
CPU 0 L1D next line prefetcher final stats

DRAM Statistics
 CHANNEL 0
 RQ ROW_BUFFER_HIT:      11050  ROW_BUFFER_MISS:      24626
 DBUS_CONGESTED:      21589
 WQ ROW_BUFFER_HIT:       1460  ROW_BUFFER_MISS:      14784  FULL:          0

 AVG_CONGESTED_CYCLE: 5

CPU 0 Branch Prediction Accuracy: 87.73% MPKI: 22.2729 Average ROB Occupancy at Mispredict: 50.6606

XXX total_mispredicts 1113645
XXX total_target_mispredicts1 837847
XXX total_target_mispredicts2 254763
XXX total_direction_mispredicts 21035
XXX mispredict_on_btb_hit 173720
XXX NOT_BRANCH: 0
XXX BRANCH_DIRECT_JUMP: 0
XXX BRANCH_INDIRECT: 13931
XXX BRANCH_CONDITIONAL: 0
XXX BRANCH_DIRECT_CALL: 0
XXX BRANCH_INDIRECT_CALL: 11427
XXX BRANCH_RETURN: 148362
XXX BRANCH_OTHER: 0
Branch types
NOT_BRANCH: 40923888 81.8478%
BRANCH_DIRECT_JUMP: 487045 0.97409%
BRANCH_INDIRECT: 169158 0.338316%
BRANCH_CONDITIONAL: 6640823 13.2816%
BRANCH_DIRECT_CALL: 755586 1.51117%
BRANCH_INDIRECT_CALL: 133962 0.267924%
BRANCH_RETURN: 889566 1.77913%
BRANCH_OTHER: 0 0%

XXX BTB_reads: 13386204
XXX BTB_writes: 918890
XXX PageBTB_reads: 0
XXX PageBTB_writes: 0
XXX PageBTB_readsBeforeWrite: 0
XXX RegionBTB_reads: 0
XXX RegionBTB_writes: 0
XXX RegionBTB_readsBeforeWrite: 0
XXX BTB_4D_Hits 648079
XXX BTB_6D_Hits 1317680
XXX BTB_8D_Hits 773929
XXX BTB_12D_Hits 335854
XXX BTB_18D_Hits 176342
XXX BTB_25D_Hits 137983
XXX BTB_46D_Hits 81798
XXX BTB_Ret_Hits 834988
XXX BTB_4D_Misses 37132
XXX BTB_6D_Misses 31805
XXX BTB_8D_Misses 95940
XXX BTB_12D_Misses 98303
XXX BTB_18D_Misses 85622
XXX BTB_25D_Misses 181656
XXX BTB_46D_Misses 333854
XXX BTB_Ret_Misses 54578
XXX Num_unique_branches 10412
total instructions: 0
wc,tif,trb
2861,7624,63653
3153,19594,33990
1920,12561,18612
2248,14643,29343
1274,6865,24233
1450,12457,14895
3563,20521,46994
4334,18178,78083
5051,38465,51928
3728,28818,45416
2191,18243,19454
8747,48899,94384
20,94,258
1707,10552,24781
569,2402,11064
1660,8222,24020
940,8640,11494
498,1990,10340
3166,12856,63220
654,5667,10019
5611,36703,61542
26,155,343
4767,29740,42623
3103,13353,50488
3719,16348,61397
5119,31288,45571
2033,15517,14965
1958,7846,40910
3732,15828,71489
309,1979,5706
4851,22593,81810
1701,14551,24974
2134,16600,20900
1338,7957,17147
3625,16940,54751
1152,8314,12979
2990,9478,61994
7494,38464,85967
2473,9720,43974
1583,3471,35984
11,55,88
1432,13423,11086
500,1827,10529
1452,7244,28975
2751,16537,37987
4274,30109,20337
896,4668,11642
2639,8634,55177
3756,15856,54036
3641,20487,42334
11,70,114
5235,29101,56595
3529,10803,58311
7,23,38
2496,14914,24943
3237,12596,65655
2672,17787,39321
256,1281,4961
2390,10925,38361
7,28,27
790,1183,18435
5855,24903,72286
5001,32524,62545
5,3,59
2031,8209,32061
6955,41406,68799
6544,28011,70021
2467,17223,36094
2331,15582,33736
3171,17590,38845
2233,11102,38797
3642,27216,40927
1948,8212,36718
3659,28356,38498
1452,6547,29497
945,8322,12330
4002,18980,61082
4873,28691,52997
2937,13772,50190
6774,33817,83563
2248,22280,25587
596,2755,10249
4862,15111,94537
1863,15512,10266
2782,16366,44986
10,38,92
1247,5547,24137
6628,35482,73092
3312,20014,29711
1705,11130,14401
5265,35896,45177
1462,3874,29626
1822,7184,34970
1888,13815,30300
3258,16139,57159
5554,30697,60946
3320,13577,55083
3141,20228,22859
5210,30888,84569
1907,6362,24462
1959,9461,33592
4403,21806,60413
990,1495,23135
9761,51740,88745
495,1731,10590
1304,5591,26056
8001,55715,76064
4610,26154,70074
2618,12991,48271
6584,47225,59480
2406,11403,48455
5651,33415,79041
1814,10308,29824
6030,27237,58702
386,3892,5460
690,3167,13515
1464,4653,28882
5969,46864,47328
2053,6579,34344
5511,35931,39605
4122,25166,45024
5111,25451,67659
1052,4576,20864
5169,36609,38920
1959,9781,31613
1543,11521,18959
1450,5277,18830
1785,12575,26092
5175,26487,85663
1709,10495,22088
1289,10386,8705
6368,51870,29644
5399,41178,42631
895,1954,20206
7,14,59
1694,11489,24364
498,3457,8913
747,3512,7721
5498,34490,42824
980,4916,12640
1376,6019,24591
370,3637,5473
24,113,250
2137,4750,47535
2514,13712,30291
4612,31588,52664
973,3929,20270
1321,8631,15013
5117,31377,36630
3095,19900,30729
9025,47712,105990
6564,34935,76226
21,186,205
1768,11481,25307
69,459,1074
1930,7716,34725
2961,14957,39588
24,112,356
2850,13450,43330
2472,18125,28477
10,69,61
905,4042,18467
2874,15095,35265
2786,13704,48346
768,3194,15138
22,120,255
632,3400,12184
1451,8687,23166
5593,33090,54801
532,2457,10335
1306,11342,10318
1036,3618,22203
6182,30269,54035
24,117,315
18,58,272
1312,9709,10119
1658,5042,36313
496,3599,8454
493,4,12275
3896,18739,57073
146,754,2610
2122,15016,33813
6,12,24
502,1762,10626
3539,21355,27284
751,8125,8188
520,3920,4945
1150,12300,11451
2118,11109,37841
3285,17872,55378
11,18,189
5318,31377,51980
5286,24810,60761
8,14,66
968,4810,16330
2258,16401,14033
3783,27620,28983
2471,16101,25418
3718,31921,20799
1242,8082,22724
1046,3913,21117
3522,18768,46148
17,109,108
2507,19475,25126
1309,6692,20327
1657,13508,17632
975,1959,22270
1813,11692,16735
8,31,49
5929,44988,35819
993,4474,20231
7,19,56
360,2404,5368
2613,18154,27395
1073,3256,23449
1115,7534,16566
5885,48520,31121
15,45,184
878,7497,12746
270,806,5860
2933,27718,29367
8,25,55
1160,5482,22447
4003,22674,57338
1205,3292,23811
2156,16289,16121
1300,5838,24076
3506,12650,55644
778,2007,17143
4971,23310,59380
14,45,129
315,1256,6505
4317,24968,55199
3873,24928,39567
919,6798,15993
5145,25532,58679
3666,10547,67701
4075,26368,40116
1889,11859,26592
4705,15028,99451
1516,12959,19223
178,520,2823
2320,12122,19917
602,5625,5951
5690,45622,35240
2741,19328,31122
4267,23385,38931
736,3809,13094
2439,25135,29870
3072,9158,60878
979,3893,20366
1887,8996,20115
1256,9578,13732
5145,23962,63427
12,29,136
1725,6921,35974
7193,34905,80252
2156,11763,29585
16,81,159
2810,12032,50584
2005,8016,41955
633,2525,13129
1140,7047,13353
13,48,171
1969,7511,23347
2415,11286,38199
5,14,37
4544,16895,71610
2788,22101,29271
2980,24975,16839
7,36,40
1525,5804,32201
9,50,86
384,1690,5508
4991,28781,60924
1488,10548,16054
2422,9062,47048
2682,16922,36112
803,5534,5473
2282,10388,42722
3183,14709,54726
401,4182,2243
898,3638,14364
1997,3989,45842
1543,6647,28408
7,22,33
6454,31355,69127
2821,23629,32185
6379,28604,82724
4007,28300,26357
2552,11629,42823
1264,12876,6603
524,1653,3118
2679,12095,40782
4261,21605,43896
1481,15563,5354
1094,7373,15313
992,7777,16575
1863,10904,16731
1238,3337,26069
272,1477,5203
2087,10815,41118
2111,11606,24157
4435,29896,26865
2400,4646,54776
4140,33985,37616
605,1257,13714
934,9015,10181
27,236,138
883,2703,19158
2234,10640,22220
1543,13640,4977
2654,9967,45423
2064,12413,21664
2599,18051,17721
661,4416,11807
3413,13683,64006
2146,14502,14562
3906,23452,65466
2521,16122,33675
6762,47469,62135
1164,9019,11188
9473,59883,61125
7715,48278,68369
3340,9111,71317
496,1980,10330
3605,27128,37406
870,7459,13951
1035,4142,21613
14,121,109
5697,34137,51556
4301,24712,40840
1466,6301,23779
3296,18128,41222
7834,61380,44692
3458,10243,72001
2204,14886,32196
1352,5885,27808
1728,14817,12593
5493,34676,69582
2398,7523,43967
3878,17557,65242
3978,27250,32259
2581,14914,32929
4554,20806,61598
1784,6418,33270
5838,42672,36715
4110,22377,66447
3115,15485,47350
2783,12217,56878
1618,8293,26985
5268,20658,80292
8,22,58
2448,18469,26930
4889,25775,43735
2175,7254,41643
6305,49067,45584
2337,15594,30781
3103,15180,54645
1747,11838,14613
2105,14635,22107
509,3007,9460
120,745,1039
1215,3866,26403
4511,28386,66955
4301,29244,30227
2073,8675,30088
6,22,54
3845,15891,46738
2278,15544,29603
3217,15564,60091
3669,28581,38665
1175,8496,14107
2155,14005,19523
2328,17300,20499
1611,9785,16190
14,51,131
3119,21175,32624
3572,19785,48824
2743,13920,43785
6141,35924,70769
2575,14820,38176
7730,32819,102544
1165,3112,25919
3589,26935,27872
49,343,426
9,25,94
4690,22208,66298
3997,15605,72168
2766,10847,46471
3454,14213,63343
5402,33577,71974
1665,5315,29705
8258,48723,77082
1076,4064,22518
5573,13492,92883
3897,32486,25576
6448,42218,33341
1029,5637,19970
1980,15119,25305
2390,15052,31055
7330,33016,103208
5619,42671,55120
1039,6988,3966
1652,6274,32314
3308,16883,61197
913,7302,9771
2175,5990,48285
9019,54850,77158
504,1790,10614
948,7372,12132
2034,14463,20863
7033,39190,88401
5742,35902,61145
7464,46543,76021
2495,11412,30355
1376,10711,7054
387,3202,6350
1051,7146,8907
2933,10781,57782
5,7,33
2525,17151,14848
2951,17642,23545
7577,51856,60755
155,529,2926
4886,41454,22389
1851,7950,26539
31,119,334
4205,30405,32971
7,15,61
12,47,91
2530,19810,23742
1056,7071,13959
857,4381,8840
3717,17380,44985
970,4837,19313
406,2411,6431
2926,13139,56601
3820,16371,28296
2007,12951,32742
3292,23055,36717
4040,26811,30204
2697,24048,25883
3008,16345,39956
9133,42606,90014
8525,35463,122592
2994,16951,45839
6051,22901,74497
408,3744,5096
3553,19226,57799
5910,38903,64872
3519,22292,48871
2406,6882,53076
3807,21196,40763
12,48,75
2876,21594,32504
2473,16215,35764
1861,12214,18598
3027,20834,37671
10097,49034,113076
6559,32729,80682
533,5832,5897
1865,12984,26533
4356,13684,80814
10278,56110,84381
18,93,109
1096,2510,24786
7551,35821,79381
7,11,65
2658,15343,17668
12,53,127
1046,4198,21829
5603,31837,57858
2324,9375,37073
1485,9934,10685
3243,20122,38491
2000,6009,43885
11868,68797,99311
4913,34981,27223
1540,6878,28624
4049,24511,62969
12,35,75
1037,9782,15998
11833,68768,93488
4538,15864,76060
981,7752,16554
312,3156,2012
2513,8934,53796
5,9,30
4084,22938,46321
4717,20708,69821
103,964,1003
232,1032,4718
5567,40513,68362
1768,6709,37425
3276,21217,46658
3449,22142,44593
13,34,191
2487,6936,55045
1350,10334,14108
1230,4685,25829
3882,28043,32355
3753,24910,45205
2054,15643,32431
26,185,177
1767,9640,30701
2839,16985,48056
18,63,207
2919,21176,41261
6670,31222,108924
5761,25143,77237
1955,20216,25279
