Initialize SIGNATURE TABLE
ST_SET: 1
ST_WAY: 256
ST_TAG_BIT: 16
ST_TAG_MASK: ffff

Initialize PATTERN TABLE
PT_SET: 512
PT_WAY: 4
SIG_DELTA_BIT: 7
C_SIG_BIT: 4
C_DELTA_BIT: 4

Initialize PREFETCH FILTER
FILTER_SET: 1024

*** ChampSim Multicore Out-of-Order Simulator ***

Warmup Instructions: 50000000
Simulation Instructions: 50000000
Number of CPUs: 1
LLC sets: 2048
LLC ways: 16
Off-chip DRAM Size: 4096 MB Channels: 1 Width: 64-bit Data Rate: 3200 MT/s

CPU 0 runs /ChampSim-master-BTBX/dpc3_traces/server_002.champsimtrace.xz
Basic BTB sets: 4096 ways: 4 indirect buffer size: 4096 RAS size: 64
CPU 0 L1D next line prefetcher
Heartbeat CPU 0 instructions: 10000000 cycles: 3581184 heartbeat IPC: 2.79237 cumulative IPC: 2.79237 (Simulation time: 0 hr 0 min 17 sec) 
Heartbeat CPU 0 instructions: 20000002 cycles: 7169903 heartbeat IPC: 2.78651 cumulative IPC: 2.78944 (Simulation time: 0 hr 0 min 35 sec) 
Heartbeat CPU 0 instructions: 30000000 cycles: 10710648 heartbeat IPC: 2.82426 cumulative IPC: 2.80095 (Simulation time: 0 hr 0 min 52 sec) 
Heartbeat CPU 0 instructions: 40000000 cycles: 14260893 heartbeat IPC: 2.81671 cumulative IPC: 2.80487 (Simulation time: 0 hr 1 min 10 sec) 
Heartbeat CPU 0 instructions: 50000001 cycles: 17808664 heartbeat IPC: 2.81867 cumulative IPC: 2.80762 (Simulation time: 0 hr 1 min 27 sec) 

Warmup complete CPU 0 instructions: 50000001 cycles: 17808664 (Simulation time: 0 hr 1 min 27 sec) 

Heartbeat CPU 0 instructions: 60000000 cycles: 28443759 heartbeat IPC: 0.940283 cumulative IPC: 0.940283 (Simulation time: 0 hr 1 min 46 sec) 
Heartbeat CPU 0 instructions: 70000001 cycles: 39076790 heartbeat IPC: 0.940466 cumulative IPC: 0.940374 (Simulation time: 0 hr 2 min 5 sec) 
Heartbeat CPU 0 instructions: 80000003 cycles: 49714321 heartbeat IPC: 0.940068 cumulative IPC: 0.940272 (Simulation time: 0 hr 2 min 23 sec) 
Heartbeat CPU 0 instructions: 90000002 cycles: 60349331 heartbeat IPC: 0.940291 cumulative IPC: 0.940277 (Simulation time: 0 hr 2 min 42 sec) 
Heartbeat CPU 0 instructions: 100000003 cycles: 70985101 heartbeat IPC: 0.940224 cumulative IPC: 0.940266 (Simulation time: 0 hr 3 min 0 sec) 
Finished CPU 0 instructions: 50000002 cycles: 53176437 cumulative IPC: 0.940266 (Simulation time: 0 hr 3 min 0 sec) 

ChampSim completed all CPUs

Region of Interest Statistics

CPU 0
XXX cumulative-IPC 0.940266
XXX instructions 50000002
XXX cycles 53176437
L1D TOTAL     ACCESS:   22349761  HIT:   22348952  MISS:        809
L1D LOAD      ACCESS:    6993106  HIT:    6992730  MISS:        376
L1D RFO       ACCESS:    8506306  HIT:    8506194  MISS:        112
L1D PREFETCH  ACCESS:    6850349  HIT:    6850028  MISS:        321
L1D WRITEBACK ACCESS:          0  HIT:          0  MISS:          0
L1D PREFETCH  REQUESTED:    6993175  ISSUED:    6890414
XXX L1D-USEFUL 91
XXX L1D-USELESS 231
L1D AVERAGE MISS LATENCY: 32.1347 cycles
L1I TOTAL     ACCESS:   15594083  HIT:   14172874  MISS:    1421209
L1I LOAD      ACCESS:   10367538  HIT:    9463067  MISS:     904471
L1I RFO       ACCESS:          0  HIT:          0  MISS:          0
L1I PREFETCH  ACCESS:    5226545  HIT:    4709807  MISS:     516738
L1I WRITEBACK ACCESS:          0  HIT:          0  MISS:          0
L1I PREFETCH  REQUESTED:    6609733  ISSUED:    6609733
XXX L1I-USEFUL 260831
XXX L1I-USELESS 255905
L1I AVERAGE MISS LATENCY: 13.6427 cycles
L2C TOTAL     ACCESS:    1984604  HIT:    1984323  MISS:        281
L2C LOAD      ACCESS:     866159  HIT:     866100  MISS:         59
L2C RFO       ACCESS:        112  HIT:        107  MISS:          5
L2C PREFETCH  ACCESS:    1117998  HIT:    1117782  MISS:        216
L2C WRITEBACK ACCESS:        335  HIT:        334  MISS:          1
L2C PREFETCH  REQUESTED:    1097858  ISSUED:    1097858
XXX L2C-USEFUL 82
XXX L2C-USELESS 119
L2C AVERAGE MISS LATENCY: 101.046 cycles
LLC TOTAL     ACCESS:     131340  HIT:     130682  MISS:        658
LLC LOAD      ACCESS:         59  HIT:         48  MISS:         11
LLC RFO       ACCESS:          5  HIT:          3  MISS:          2
LLC PREFETCH  ACCESS:     131193  HIT:     130550  MISS:        643
LLC WRITEBACK ACCESS:         83  HIT:         81  MISS:          2
LLC PREFETCH  REQUESTED:          0  ISSUED:          0
XXX LLC-USEFUL 8
XXX LLC-USELESS 155
LLC AVERAGE MISS LATENCY: 217.296 cycles
Major fault: 0 Minor fault: 1870
XXX disp-0 2564871
XXX disp-1 0
XXX disp-2 11
XXX disp-3 220491
XXX disp-4 767554
XXX disp-5 946897
XXX disp-6 1559956
XXX disp-7 717877
XXX disp-8 576975
XXX disp-9 462728
XXX disp-10 388131
XXX disp-11 467668
XXX disp-12 123025
XXX disp-13 37419
XXX disp-14 275231
XXX disp-15 279873
XXX disp-16 183356
XXX disp-17 2236
XXX disp-18 107172
XXX disp-19 2218
XXX disp-20 266237
XXX disp-21 179955
XXX disp-22 43
XXX disp-23 434457
XXX disp-24 0
XXX disp-25 0
XXX disp-26 0
XXX disp-27 0
XXX disp-28 0
XXX disp-29 0
XXX disp-30 0
XXX disp-31 0
XXX disp-32 0
XXX disp-33 0
XXX disp-34 0
XXX disp-35 0
XXX disp-36 0
XXX disp-37 0
XXX disp-38 0
XXX disp-39 0
XXX disp-40 0
XXX disp-41 0
XXX disp-42 0
XXX disp-43 0
XXX disp-44 0
XXX disp-45 0
XXX disp-46 0
XXX disp-47 2149
XXX disp-48 0
XXX disp-49 0
XXX disp-50 0
XXX disp-51 0
XXX disp-52 0
XXX disp-53 0
XXX disp-54 0
XXX disp-55 0
XXX disp-56 0
XXX disp-57 0
XXX disp-58 0
XXX disp-59 0
XXX disp-60 0
XXX disp-61 0
XXX disp-62 0
XXX disp-63 0
XXX disp-64 0
XXX disp-65 0
XXX diffBits-0 2564871
XXX diffBits-1 0
XXX diffBits-2 107326
XXX diffBits-3 280611
XXX diffBits-4 532878
XXX diffBits-5 1422748
XXX diffBits-6 940143
XXX diffBits-7 623435
XXX diffBits-8 584070
XXX diffBits-9 463197
XXX diffBits-10 581815
XXX diffBits-11 449206
XXX diffBits-12 175821
XXX diffBits-13 73117
XXX diffBits-14 175071
XXX diffBits-15 89574
XXX diffBits-16 161391
XXX diffBits-17 2294
XXX diffBits-18 72063
XXX diffBits-19 471040
XXX diffBits-20 180917
XXX diffBits-21 178318
XXX diffBits-22 434475
XXX diffBits-23 0
XXX diffBits-24 0
XXX diffBits-25 0
XXX diffBits-26 0
XXX diffBits-27 0
XXX diffBits-28 0
XXX diffBits-29 0
XXX diffBits-30 0
XXX diffBits-31 0
XXX diffBits-32 0
XXX diffBits-33 0
XXX diffBits-34 0
XXX diffBits-35 0
XXX diffBits-36 0
XXX diffBits-37 0
XXX diffBits-38 0
XXX diffBits-39 0
XXX diffBits-40 0
XXX diffBits-41 0
XXX diffBits-42 0
XXX diffBits-43 0
XXX diffBits-44 0
XXX diffBits-45 0
XXX diffBits-46 2149
XXX diffBits-47 0
XXX diffBits-48 0
XXX diffBits-49 0
XXX diffBits-50 0
XXX diffBits-51 0
XXX diffBits-52 0
XXX diffBits-53 0
XXX diffBits-54 0
XXX diffBits-55 0
XXX diffBits-56 0
XXX diffBits-57 0
XXX diffBits-58 0
XXX diffBits-59 0
XXX diffBits-60 0
XXX diffBits-61 0
XXX diffBits-62 0
XXX diffBits-63 0
XXX diffBits-64 0
XXX diffBits-65 0
CPU 0 L1D next line prefetcher final stats

DRAM Statistics
 CHANNEL 0
 RQ ROW_BUFFER_HIT:        105  ROW_BUFFER_MISS:        551
 DBUS_CONGESTED:        411
 WQ ROW_BUFFER_HIT:         79  ROW_BUFFER_MISS:        384  FULL:          0

 AVG_CONGESTED_CYCLE: 6

CPU 0 Branch Prediction Accuracy: 98.825% MPKI: 1.97858 Average ROB Occupancy at Mispredict: 151.345

XXX total_mispredicts 98929
XXX total_target_mispredicts1 88866
XXX total_target_mispredicts2 36
XXX total_direction_mispredicts 10027
XXX mispredict_on_btb_hit 88828
XXX NOT_BRANCH: 0
XXX BRANCH_DIRECT_JUMP: 0
XXX BRANCH_INDIRECT: 0
XXX BRANCH_CONDITIONAL: 0
XXX BRANCH_DIRECT_CALL: 0
XXX BRANCH_INDIRECT_CALL: 17656
XXX BRANCH_RETURN: 71172
XXX BRANCH_OTHER: 0
Branch types
NOT_BRANCH: 41580689 83.1614%
BRANCH_DIRECT_JUMP: 461629 0.923258%
BRANCH_INDIRECT: 0 0%
BRANCH_CONDITIONAL: 5376435 10.7529%
BRANCH_DIRECT_CALL: 1175774 2.35155%
BRANCH_INDIRECT_CALL: 114840 0.22968%
BRANCH_RETURN: 1290625 2.58125%
BRANCH_OTHER: 0 0%

XXX BTB_reads: 1188422
XXX BTB_writes: 74
XXX PageBTB_reads: 0
XXX PageBTB_writes: 0
XXX PageBTB_readsBeforeWrite: 0
XXX RegionBTB_reads: 0
XXX RegionBTB_writes: 0
XXX RegionBTB_readsBeforeWrite: 0
XXX BTB_4D_Hits 446334
XXX BTB_6D_Hits 1182562
XXX BTB_8D_Hits 838032
XXX BTB_12D_Hits 645700
XXX BTB_18D_Hits 577554
XXX BTB_25D_Hits 308975
XXX BTB_46D_Hits 0
XXX BTB_Ret_Hits 1290622
XXX BTB_4D_Misses 7
XXX BTB_6D_Misses 3
XXX BTB_8D_Misses 9
XXX BTB_12D_Misses 12
XXX BTB_18D_Misses 10
XXX BTB_25D_Misses 14
XXX BTB_46D_Misses 16
XXX BTB_Ret_Misses 3
XXX Num_unique_branches 1761
total instructions: 0
wc,tif,trb
17,43,149
23,92,196
20,98,127
27,116,313
26,119,183
28,146,238
16,72,136
18,85,173
16,77,112
29,156,266
16,64,139
31,112,326
37,130,296
13,42,100
14,61,118
14,54,85
16,84,183
37,246,237
13,87,98
26,117,194
12,66,64
19,71,167
15,74,135
18,83,142
15,93,89
13,57,106
20,78,163
25,94,158
21,118,148
23,101,262
23,141,229
26,101,284
34,215,195
11,49,74
15,76,127
15,78,80
15,41,140
14,79,97
13,73,79
8,23,67
10,31,99
15,84,114
14,61,170
16,102,86
15,82,131
14,58,102
16,93,93
17,63,196
12,83,104
24,166,109
12,36,187
18,95,127
22,94,142
13,61,90
16,66,146
16,68,178
23,127,106
28,130,163
21,91,184
14,62,134
15,98,103
13,55,106
17,58,182
27,91,283
23,161,145
17,84,139
18,99,151
23,102,162
21,99,137
20,82,119
13,65,90
13,73,76
21,111,126
15,70,111
19,70,226
11,50,71
23,101,198
12,63,80
21,95,224
13,77,72
19,79,214
25,96,238
14,72,122
14,41,100
30,125,253
13,55,108
16,82,168
33,175,218
23,105,256
13,73,131
21,101,180
13,37,169
17,73,156
25,109,211
18,87,203
15,76,117
26,141,260
17,78,121
14,49,125
20,65,201
19,73,156
14,75,104
23,118,187
25,157,202
20,84,190
22,110,226
12,31,122
26,106,222
16,79,123
28,111,289
13,80,81
27,162,220
24,107,184
19,94,137
36,173,297
12,75,79
11,48,139
18,65,134
20,97,142
15,49,160
21,71,224
21,95,197
15,72,157
16,59,189
24,96,253
20,94,251
16,73,118
23,91,262
20,76,142
13,58,114
19,76,150
13,56,74
22,107,173
20,82,193
18,46,184
21,92,174
29,107,278
11,34,115
19,89,111
18,86,114
30,156,208
21,111,126
19,65,230
20,95,157
26,139,255
16,71,93
18,104,152
21,98,217
22,133,93
22,87,184
21,87,189
17,76,114
19,92,185
19,83,166
27,131,288
17,82,132
20,96,138
15,53,150
19,86,187
22,100,183
12,62,80
17,55,182
24,136,148
23,97,186
14,90,96
15,66,145
22,79,224
23,135,121
14,58,172
25,137,222
24,110,205
28,151,187
13,54,139
25,120,195
19,86,141
15,51,141
14,60,103
15,77,80
17,59,186
16,53,161
22,85,200
14,70,114
20,85,208
25,99,214
21,69,210
27,107,214
26,99,252
19,83,143
19,61,229
27,157,239
22,110,123
22,75,267
11,35,129
22,135,137
24,117,216
15,63,168
25,109,241
20,107,173
30,114,296
7,28,27
23,90,248
20,73,171
21,120,172
18,88,172
20,84,186
26,117,177
29,104,233
24,96,266
24,124,139
39,161,369
18,96,162
22,110,211
14,64,139
26,144,171
28,112,289
25,118,179
19,72,219
21,48,204
22,122,121
33,107,416
15,87,110
22,90,244
18,77,157
24,157,204
16,61,174
20,60,153
14,65,112
12,43,99
17,111,118
15,66,133
16,67,106
13,54,145
17,70,129
25,105,216
26,130,166
20,93,133
15,43,178
24,126,187
15,71,126
13,56,97
16,71,161
15,50,147
5,16,46
25,101,221
14,61,83
11,49,82
27,134,211
19,70,159
18,84,160
24,100,225
24,124,173
21,82,179
12,49,119
21,94,171
10,45,97
10,52,90
32,159,224
24,115,219
15,44,168
21,85,178
20,76,153
22,136,118
15,64,103
26,138,185
16,64,142
22,101,168
13,65,136
22,126,149
26,131,265
24,89,284
15,54,145
21,89,188
10,39,73
21,103,149
18,97,105
30,164,248
17,70,203
22,134,161
20,89,192
12,45,122
22,84,231
18,114,138
21,100,213
29,119,263
24,97,171
19,85,218
19,81,188
24,104,230
25,114,219
22,100,180
21,97,164
26,136,218
28,111,312
23,116,143
12,43,134
27,116,236
15,66,108
31,169,207
15,71,148
16,71,167
20,77,155
14,60,136
18,93,159
32,124,312
13,56,116
23,117,166
19,88,137
19,76,166
15,89,94
21,63,198
27,100,216
20,92,175
17,52,165
17,92,114
6,8,48
15,70,137
25,105,223
20,68,236
19,102,181
19,72,164
21,100,163
20,78,203
19,106,116
25,112,255
15,78,113
22,94,198
21,116,170
20,88,192
13,40,92
19,61,244
10,38,70
39,185,369
16,36,168
24,144,171
27,128,220
19,58,193
24,104,253
24,116,202
24,138,175
28,165,253
35,157,302
21,103,241
31,123,299
18,55,178
13,56,111
11,30,70
20,105,153
30,133,283
14,64,148
26,89,295
25,127,213
40,217,267
26,86,253
23,105,186
30,174,217
19,75,199
15,58,103
28,100,266
21,102,195
15,56,106
29,149,154
31,193,251
21,106,150
23,79,257
24,136,120
32,152,263
17,173,68
11,50,83
21,116,186
13,55,89
21,131,120
29,126,313
22,102,142
19,64,202
11,22,112
31,197,229
23,81,233
20,95,144
16,68,109
23,95,205
20,77,181
17,60,149
15,48,175
22,81,198
14,77,76
13,84,65
10,14,110
22,100,168
15,52,126
26,130,190
21,87,233
20,126,125
18,70,157
23,101,183
31,184,193
21,76,169
21,102,207
22,110,170
27,131,216
17,56,175
23,113,179
18,61,150
19,69,158
16,60,133
20,74,175
15,68,161
15,54,141
11,54,81
24,124,164
7,19,50
24,132,220
23,94,194
20,93,146
12,69,69
33,196,355
27,163,206
19,100,140
15,81,86
13,47,110
27,163,231
10,54,62
18,117,124
30,113,299
16,62,111
20,75,159
26,94,268
15,66,128
21,83,185
31,111,247
20,79,153
15,91,106
15,83,98
25,155,141
15,60,156
13,51,98
16,91,115
21,98,134
24,130,205
23,93,185
19,98,151
23,127,169
20,133,103
23,115,170
16,84,120
12,70,68
13,95,119
18,93,100
27,94,250
18,87,128
21,94,137
26,164,245
21,116,136
17,71,97
13,48,123
24,92,324
24,119,284
29,119,170
17,60,167
25,93,238
20,96,141
29,158,338
22,92,193
20,91,193
29,111,274
22,79,160
26,90,247
26,157,142
22,105,235
29,127,212
14,84,99
20,77,192
25,118,195
15,68,122
14,75,93
22,68,194
14,53,160
15,62,183
28,117,287
28,105,355
27,97,265
12,55,87
30,150,291
20,64,170
24,95,148
15,61,156
33,208,203
8,31,78
27,102,266
20,95,153
34,145,270
22,91,185
22,154,145
25,126,253
28,110,225
25,115,187
21,87,216
17,92,204
21,106,171
24,142,159
17,67,93
14,56,148
24,81,177
16,106,142
16,46,200
26,122,308
26,93,315
24,111,236
19,90,174
36,179,327
19,92,203
21,141,200
33,173,359
