Initialize SIGNATURE TABLE
ST_SET: 1
ST_WAY: 256
ST_TAG_BIT: 16
ST_TAG_MASK: ffff

Initialize PATTERN TABLE
PT_SET: 512
PT_WAY: 4
SIG_DELTA_BIT: 7
C_SIG_BIT: 4
C_DELTA_BIT: 4

Initialize PREFETCH FILTER
FILTER_SET: 1024

*** ChampSim Multicore Out-of-Order Simulator ***

Warmup Instructions: 50000000
Simulation Instructions: 50000000
Number of CPUs: 1
LLC sets: 2048
LLC ways: 16
Off-chip DRAM Size: 4096 MB Channels: 1 Width: 64-bit Data Rate: 3200 MT/s

CPU 0 runs /ChampSim-master-BTBX/dpc3_traces/server_004.champsimtrace.xz
Basic BTB sets: 4096 ways: 4 indirect buffer size: 4096 RAS size: 64
CPU 0 L1D next line prefetcher
Heartbeat CPU 0 instructions: 10000002 cycles: 3224951 heartbeat IPC: 3.10082 cumulative IPC: 3.10082 (Simulation time: 0 hr 0 min 17 sec) 
Heartbeat CPU 0 instructions: 20000002 cycles: 6557656 heartbeat IPC: 3.00057 cumulative IPC: 3.04987 (Simulation time: 0 hr 0 min 34 sec) 
Heartbeat CPU 0 instructions: 30000000 cycles: 11674533 heartbeat IPC: 1.95432 cumulative IPC: 2.5697 (Simulation time: 0 hr 0 min 54 sec) 
Heartbeat CPU 0 instructions: 40000003 cycles: 15419928 heartbeat IPC: 2.66995 cumulative IPC: 2.59405 (Simulation time: 0 hr 1 min 12 sec) 
Heartbeat CPU 0 instructions: 50000003 cycles: 18644250 heartbeat IPC: 3.10143 cumulative IPC: 2.68179 (Simulation time: 0 hr 1 min 29 sec) 

Warmup complete CPU 0 instructions: 50000003 cycles: 18644250 (Simulation time: 0 hr 1 min 29 sec) 

Heartbeat CPU 0 instructions: 60000002 cycles: 31622820 heartbeat IPC: 0.770501 cumulative IPC: 0.770501 (Simulation time: 0 hr 1 min 46 sec) 
Heartbeat CPU 0 instructions: 70000003 cycles: 44103662 heartbeat IPC: 0.801228 cumulative IPC: 0.785564 (Simulation time: 0 hr 2 min 4 sec) 
Heartbeat CPU 0 instructions: 80000001 cycles: 69474370 heartbeat IPC: 0.394155 cumulative IPC: 0.590201 (Simulation time: 0 hr 2 min 29 sec) 
Heartbeat CPU 0 instructions: 90000003 cycles: 87992841 heartbeat IPC: 0.540002 cumulative IPC: 0.576796 (Simulation time: 0 hr 2 min 50 sec) 
Heartbeat CPU 0 instructions: 100000002 cycles: 100941673 heartbeat IPC: 0.77227 cumulative IPC: 0.607552 (Simulation time: 0 hr 3 min 7 sec) 
Finished CPU 0 instructions: 50000000 cycles: 82297425 cumulative IPC: 0.607552 (Simulation time: 0 hr 3 min 7 sec) 

ChampSim completed all CPUs

Region of Interest Statistics

CPU 0
XXX cumulative-IPC 0.607552
XXX instructions 50000000
XXX cycles 82297425
L1D TOTAL     ACCESS:   22309251  HIT:   18236499  MISS:    4072752
L1D LOAD      ACCESS:    8888454  HIT:    6876749  MISS:    2011705
L1D RFO       ACCESS:    4729079  HIT:    4622029  MISS:     107050
L1D PREFETCH  ACCESS:    8691718  HIT:    6737721  MISS:    1953997
L1D WRITEBACK ACCESS:          0  HIT:          0  MISS:          0
L1D PREFETCH  REQUESTED:    8921988  ISSUED:    8829311
XXX L1D-USEFUL 113750
XXX L1D-USELESS 1840242
L1D AVERAGE MISS LATENCY: 22.3977 cycles
L1I TOTAL     ACCESS:   14867316  HIT:   13598476  MISS:    1268840
L1I LOAD      ACCESS:   10698208  HIT:    9933430  MISS:     764778
L1I RFO       ACCESS:          0  HIT:          0  MISS:          0
L1I PREFETCH  ACCESS:    4169108  HIT:    3665046  MISS:     504062
L1I WRITEBACK ACCESS:          0  HIT:          0  MISS:          0
L1I PREFETCH  REQUESTED:    5528515  ISSUED:    5528515
XXX L1I-USEFUL 305821
XXX L1I-USELESS 198194
L1I AVERAGE MISS LATENCY: 18.9055 cycles
L2C TOTAL     ACCESS:    6887006  HIT:    5784962  MISS:    1102044
L2C LOAD      ACCESS:    2298631  HIT:    2043552  MISS:     255079
L2C RFO       ACCESS:     105912  HIT:      58178  MISS:      47734
L2C PREFETCH  ACCESS:    4237419  HIT:    3439351  MISS:     798068
L2C WRITEBACK ACCESS:     245044  HIT:     243881  MISS:       1163
L2C PREFETCH  REQUESTED:    5506021  ISSUED:    5505912
XXX L2C-USEFUL 85818
XXX L2C-USELESS 710549
L2C AVERAGE MISS LATENCY: 53.1797 cycles
LLC TOTAL     ACCESS:    2232274  HIT:    2012406  MISS:     219868
LLC LOAD      ACCESS:     254657  HIT:     221819  MISS:      32838
LLC RFO       ACCESS:      47733  HIT:      33241  MISS:      14492
LLC PREFETCH  ACCESS:    1792033  HIT:    1619840  MISS:     172193
LLC WRITEBACK ACCESS:     137851  HIT:     137506  MISS:        345
LLC PREFETCH  REQUESTED:          0  ISSUED:          0
XXX LLC-USEFUL 17755
XXX LLC-USELESS 148800
LLC AVERAGE MISS LATENCY: 164.696 cycles
Major fault: 0 Minor fault: 7596
XXX disp-0 1975820
XXX disp-1 0
XXX disp-2 2308
XXX disp-3 808043
XXX disp-4 2442828
XXX disp-5 624124
XXX disp-6 984039
XXX disp-7 638347
XXX disp-8 431540
XXX disp-9 316564
XXX disp-10 269238
XXX disp-11 117015
XXX disp-12 61041
XXX disp-13 70005
XXX disp-14 89164
XXX disp-15 149342
XXX disp-16 37074
XXX disp-17 58445
XXX disp-18 139468
XXX disp-19 133701
XXX disp-20 234106
XXX disp-21 327529
XXX disp-22 258106
XXX disp-23 151733
XXX disp-24 77818
XXX disp-25 48561
XXX disp-26 19463
XXX disp-27 313
XXX disp-28 15341
XXX disp-29 0
XXX disp-30 0
XXX disp-31 0
XXX disp-32 0
XXX disp-33 0
XXX disp-34 0
XXX disp-35 0
XXX disp-36 0
XXX disp-37 0
XXX disp-38 0
XXX disp-39 0
XXX disp-40 0
XXX disp-41 0
XXX disp-42 0
XXX disp-43 0
XXX disp-44 0
XXX disp-45 0
XXX disp-46 0
XXX disp-47 0
XXX disp-48 0
XXX disp-49 0
XXX disp-50 0
XXX disp-51 0
XXX disp-52 0
XXX disp-53 0
XXX disp-54 0
XXX disp-55 0
XXX disp-56 0
XXX disp-57 0
XXX disp-58 0
XXX disp-59 0
XXX disp-60 0
XXX disp-61 0
XXX disp-62 0
XXX disp-63 11
XXX disp-64 0
XXX disp-65 0
XXX diffBits-0 1975820
XXX diffBits-1 879
XXX diffBits-2 200038
XXX diffBits-3 592129
XXX diffBits-4 759572
XXX diffBits-5 2036763
XXX diffBits-6 883595
XXX diffBits-7 637182
XXX diffBits-8 595030
XXX diffBits-9 408342
XXX diffBits-10 200471
XXX diffBits-11 98930
XXX diffBits-12 193430
XXX diffBits-13 125728
XXX diffBits-14 98705
XXX diffBits-15 117259
XXX diffBits-16 86827
XXX diffBits-17 87958
XXX diffBits-18 83435
XXX diffBits-19 216522
XXX diffBits-20 202221
XXX diffBits-21 95258
XXX diffBits-22 227826
XXX diffBits-23 473478
XXX diffBits-24 0
XXX diffBits-25 68024
XXX diffBits-26 0
XXX diffBits-27 15654
XXX diffBits-28 0
XXX diffBits-29 0
XXX diffBits-30 0
XXX diffBits-31 0
XXX diffBits-32 0
XXX diffBits-33 0
XXX diffBits-34 0
XXX diffBits-35 0
XXX diffBits-36 0
XXX diffBits-37 0
XXX diffBits-38 0
XXX diffBits-39 0
XXX diffBits-40 0
XXX diffBits-41 0
XXX diffBits-42 0
XXX diffBits-43 0
XXX diffBits-44 0
XXX diffBits-45 0
XXX diffBits-46 0
XXX diffBits-47 0
XXX diffBits-48 0
XXX diffBits-49 0
XXX diffBits-50 0
XXX diffBits-51 0
XXX diffBits-52 0
XXX diffBits-53 0
XXX diffBits-54 0
XXX diffBits-55 0
XXX diffBits-56 0
XXX diffBits-57 0
XXX diffBits-58 0
XXX diffBits-59 0
XXX diffBits-60 0
XXX diffBits-61 0
XXX diffBits-62 11
XXX diffBits-63 0
XXX diffBits-64 0
XXX diffBits-65 0
CPU 0 L1D next line prefetcher final stats

DRAM Statistics
 CHANNEL 0
 RQ ROW_BUFFER_HIT:      46080  ROW_BUFFER_MISS:     173435
 DBUS_CONGESTED:      77749
 WQ ROW_BUFFER_HIT:      10479  ROW_BUFFER_MISS:      42366  FULL:          0

 AVG_CONGESTED_CYCLE: 5

CPU 0 Branch Prediction Accuracy: 93.4969% MPKI: 13.7552 Average ROB Occupancy at Mispredict: 53.2707

XXX total_mispredicts 687758
XXX total_target_mispredicts1 398711
XXX total_target_mispredicts2 190971
XXX total_direction_mispredicts 98076
XXX mispredict_on_btb_hit 148138
XXX NOT_BRANCH: 0
XXX BRANCH_DIRECT_JUMP: 4
XXX BRANCH_INDIRECT: 25432
XXX BRANCH_CONDITIONAL: 0
XXX BRANCH_DIRECT_CALL: 13
XXX BRANCH_INDIRECT_CALL: 22179
XXX BRANCH_RETURN: 100510
XXX BRANCH_OTHER: 0
Branch types
NOT_BRANCH: 39423749 78.8475%
BRANCH_DIRECT_JUMP: 551642 1.10328%
BRANCH_INDIRECT: 139368 0.278736%
BRANCH_CONDITIONAL: 7920857 15.8417%
BRANCH_DIRECT_CALL: 776072 1.55214%
BRANCH_INDIRECT_CALL: 194644 0.389288%
BRANCH_RETURN: 993311 1.98662%
BRANCH_OTHER: 0 0%

XXX BTB_reads: 8869349
XXX BTB_writes: 441533
XXX PageBTB_reads: 0
XXX PageBTB_writes: 0
XXX PageBTB_readsBeforeWrite: 0
XXX RegionBTB_reads: 0
XXX RegionBTB_writes: 0
XXX RegionBTB_readsBeforeWrite: 0
XXX BTB_4D_Hits 688137
XXX BTB_6D_Hits 1414001
XXX BTB_8D_Hits 763219
XXX BTB_12D_Hits 261258
XXX BTB_18D_Hits 370990
XXX BTB_25D_Hits 372926
XXX BTB_46D_Hits 6781
XXX BTB_Ret_Hits 954925
XXX BTB_4D_Misses 83220
XXX BTB_6D_Misses 23649
XXX BTB_8D_Misses 57793
XXX BTB_12D_Misses 42409
XXX BTB_18D_Misses 29202
XXX BTB_25D_Misses 73379
XXX BTB_46D_Misses 93495
XXX BTB_Ret_Misses 38386
XXX Num_unique_branches 46469
total instructions: 0
wc,tif,trb
968,5971,13814
1795,9266,18934
1802,11366,14868
1054,8541,6408
865,3712,10749
127,780,1091
2333,11279,20660
549,3358,5014
624,4777,4626
781,5888,7390
649,3745,6771
3004,12583,30393
1165,7923,11944
566,4657,5912
905,3934,14634
570,2847,6316
1222,7650,13544
1070,5852,8221
1785,8657,17212
1369,8619,8996
1277,7517,9526
1369,6755,15542
1398,9039,8922
875,5089,9036
1658,9349,13790
161,837,1730
653,4422,4664
1406,8820,10293
1999,11394,15954
1987,10081,23439
1692,12260,15351
1555,8547,12470
1785,11239,15109
2114,14535,16604
751,4419,9748
2626,17044,12867
1374,6280,18875
1001,6790,7157
491,2610,7494
1474,7837,8538
1644,10151,10967
654,3686,8726
1072,7158,10857
577,3158,6428
1496,5535,20544
1274,7012,15242
1845,10086,15982
1195,8847,11335
916,6582,4577
1026,6704,7844
964,7557,5101
1639,8774,11781
815,5445,6808
2613,13319,24536
403,2663,4655
1571,11050,10506
1291,5700,13798
1184,6930,11316
553,1907,10738
1534,7507,17135
1598,7273,15501
2897,15031,29579
2233,11953,22457
1254,3933,19675
1251,7534,14644
1789,12653,11569
1995,10476,18389
1807,11363,10945
309,1580,3217
1102,6228,11786
2293,10576,19095
1329,6185,14956
1247,7676,11506
926,6440,7078
1366,5650,18063
1235,5603,12256
862,5077,12238
204,852,3113
1196,6146,16152
1268,9579,9633
1654,9384,11851
1030,4115,13552
2865,14223,22731
1542,9384,12806
3320,21516,18187
932,5260,11129
1655,8748,14619
2301,10843,24024
2160,10919,22740
2228,11042,21562
2381,13014,21045
1552,6766,22878
2150,13501,10234
1970,11030,20547
3102,16260,44603
1028,6904,8373
1294,6820,16472
1980,12992,12247
2081,12339,18680
1272,6279,20049
1961,12883,12832
1435,5542,19785
816,3537,12163
2659,18535,13454
1587,9457,14393
1993,10971,21026
1068,4518,17076
824,4958,6550
1299,7470,15583
872,4824,7189
1847,8643,19699
1198,9145,7840
1143,7730,8840
2335,14920,17863
876,5667,9076
2445,10816,25705
1440,6247,17371
2514,14498,25474
1352,6674,12310
1485,7081,15966
151,716,1761
950,6622,9906
1403,5939,23238
2074,13633,17973
1187,4488,21371
2164,12446,19303
1459,8191,16862
2247,11837,25513
2074,13948,14771
2217,9522,27834
2323,10898,24146
2377,12935,20201
1804,10084,19563
1682,8731,13441
1870,12157,10180
2757,17553,21928
1643,11936,9418
848,4699,9087
2157,10603,21869
2114,8688,22175
705,3805,7128
1404,4855,14360
1463,6854,12974
1239,5824,14495
1446,7695,13932
1022,5974,11856
1037,6147,11876
1875,8808,15850
2037,13041,11241
1373,7393,17594
2068,9671,19871
1504,5462,16162
339,1594,5277
2092,13608,12705
1784,10861,14755
2595,11094,16986
1858,6948,24076
804,3131,12868
2214,10712,24569
1296,7316,10597
2455,12295,22271
2082,10663,16100
1594,7207,16025
929,5481,9429
2252,11024,17973
225,648,2962
2661,14236,21897
1013,4065,12767
1816,12641,12282
1209,8303,7629
1419,5437,16629
3012,20422,19876
790,4758,9690
1457,6208,21471
1075,6119,11778
1343,7763,11363
1498,7277,14371
1442,7330,13222
1257,4606,19465
1282,7027,13254
1761,7015,14641
671,3856,6600
1755,9683,11124
2208,13206,17142
1741,7915,21573
1295,7569,9314
2332,10579,21624
1660,8549,16937
2009,11744,16030
999,4002,17983
1488,8478,12920
1087,4142,15485
2070,9678,19847
2349,11501,22810
1038,8136,5861
2091,8903,23999
795,3573,12275
1876,9511,17069
1571,6466,15153
900,5893,9450
1760,9534,17047
1850,10219,17595
1354,7315,11013
1848,10517,13663
1801,9831,22067
1603,10057,14729
1080,4746,9377
816,2195,11814
2348,11589,22586
1486,8426,12645
1746,9146,16947
2297,13810,16299
1117,5120,9911
2126,11784,17787
1640,9947,14553
1987,9705,18600
2293,11556,20691
853,4789,13602
3229,14201,36374
2216,10684,23362
905,3836,16064
3784,23784,24975
2251,14130,18005
1799,9740,21115
1873,11798,16388
1649,8144,17592
964,6143,6517
2926,15454,19565
2260,14568,16539
2115,12425,17749
1326,6965,14378
1901,9326,13773
332,2583,2303
1582,8535,15770
1911,8954,24516
3666,17172,36711
1562,8540,14239
3003,15513,29900
1369,7624,13175
1157,7061,12110
703,4495,7508
2399,11176,23296
1159,5539,9926
1668,8815,15595
2624,14876,20294
763,4265,9310
671,3042,8608
1356,7780,11982
909,4889,10597
2252,13087,13699
1982,11335,15062
1562,7282,16077
1584,10138,14203
2397,13556,16634
947,5742,11191
3330,15582,40223
863,4285,9023
2041,14516,9437
2243,14035,13820
1192,7533,9697
1575,8604,14190
509,3119,5193
1871,9766,16697
716,4819,5516
795,4752,7106
2192,12401,13626
1383,7037,13832
1134,5833,11045
1616,6989,19631
1642,8599,12055
1816,8495,19494
1533,6455,13874
1903,11722,15177
1886,9657,14524
592,2632,6973
1247,7428,9194
2175,11788,18478
2049,11166,19971
3164,12800,31766
1520,6401,14487
1631,9424,15816
960,6095,9392
1097,6266,12128
1622,8139,13298
2183,16084,12402
1644,8043,18600
1289,8056,12498
1998,13479,16309
1391,8852,9743
1464,6857,13471
1016,5475,10214
1675,11078,9856
1082,4531,13571
1769,8259,16426
1188,6665,9200
2132,11106,23472
1438,10334,9201
1568,10606,8416
1005,5736,8758
2445,13552,23456
2192,15315,13618
1694,10506,11739
1762,8483,16069
2110,11429,15997
1537,8765,12890
1663,12025,9114
1610,7448,16925
2332,12425,19671
2017,11316,18969
2009,9468,16068
1036,4558,14828
690,3360,10679
1481,9565,8649
1361,3854,23949
1410,10017,11393
1893,10266,24908
3416,20088,27926
979,4501,11236
1450,7018,16240
2106,13459,19179
1438,10308,7744
2541,16347,14469
1727,10501,14411
1940,14065,10325
583,3141,5969
206,744,3360
1220,6801,14441
1296,4362,12720
1004,5052,12659
1982,11656,13410
2489,12680,22113
1987,11491,14597
960,6100,8565
1637,8034,19147
984,5897,8591
1918,9039,20480
1059,6244,10076
986,5153,9620
680,3751,7258
1366,6416,15646
1148,4331,11875
3169,19712,23147
2057,11686,16212
1924,10270,16355
772,4369,5447
1500,9951,10319
2986,12420,29668
1394,8340,12190
2394,12426,20839
2617,14869,20008
1678,11268,16118
1598,7865,16626
603,2538,10209
1385,8053,15645
1567,6967,16131
318,2026,3908
1040,5968,9202
933,6603,7167
1572,8928,15605
778,2543,9031
1546,11388,9683
939,5960,9433
1653,7910,16797
1605,9445,10074
595,2907,9654
1422,7385,14785
1083,6380,6970
1062,7118,6431
689,4034,7267
2057,10486,14558
967,5026,10572
3389,18195,27925
1914,8818,18659
1538,8435,16198
1463,5154,14364
1931,9653,15405
1986,10976,18410
2283,17073,10693
759,3637,7711
1231,6393,11459
1519,7384,15824
2105,10907,16438
1509,8796,15302
1598,7726,16269
1553,10742,9810
783,4506,5589
1004,4512,10772
1564,10373,12805
1490,7520,12627
864,2984,13433
691,3434,9803
1057,5982,9361
819,6271,6936
2333,15919,14434
1575,7891,8997
979,4202,11719
1974,12878,15646
1289,6762,11717
2088,9732,27861
1252,7734,10807
881,3844,9181
1704,10503,12164
2004,11097,18873
1792,10443,13006
1530,10130,13416
2466,12297,18867
2029,9121,25525
1398,8329,12358
1245,5751,16555
1220,7138,9922
2089,9367,20998
911,4126,14369
1554,8605,14628
3107,14721,32000
1730,9470,17916
1480,7841,13605
1229,6181,8472
2025,8994,20345
983,5720,8575
1151,7029,11438
906,6111,7357
1250,9660,4749
1475,6865,14365
3242,16746,29560
1990,12532,14717
2692,10381,39957
1282,7146,9922
3141,14971,33610
2313,10850,23366
2689,14784,23321
751,3573,12137
1149,6581,8609
2191,13600,15134
1176,6724,10291
996,5396,9932
2215,8897,23064
2226,10964,17664
1864,11973,14875
1366,6037,14640
2058,9370,18344
1514,7657,13348
1514,7582,20483
881,6363,6921
3841,19034,26640
1087,5265,14897
1281,7442,10118
1817,10781,16042
2269,13386,24463
1640,13557,9229
1729,8998,11543
2349,9769,35807
1881,8893,20510
541,1506,10683
1574,9494,14497
2408,13212,11868
1765,10196,10185
2350,11549,22901
252,1944,2170
635,3653,8776
693,4167,7241
2309,14833,18613
1525,6654,19194
1958,12303,15824
1525,7369,18251
1193,6063,11085
1721,6977,27001
1522,10674,10313
2366,13132,21686
1220,8694,8530
3129,14703,30879
1036,3413,12703
985,5367,8809
1296,5579,16465
2125,11546,19275
2435,12997,31998
1275,5745,13957
779,4485,7610
637,3819,6013
1939,8274,26667
1220,6498,11738
2121,11600,16587
811,3268,11739
887,7158,5425
1730,12372,9123
1215,5949,14862
1341,7067,14131
2055,11740,16276
1998,9097,18523
1252,7631,13597
1794,7747,21939
1366,7074,14006
1816,10513,15796
359,1733,5958
2568,10701,29665
424,3129,3399
1978,10585,14044
1570,10080,10378
893,5747,7611
2920,17854,27375
521,4930,3567
1306,7191,14021
459,2242,6739
1433,7035,19800
1754,7091,20187
2190,10698,20719
1343,4949,25339
2484,12510,25681
1513,8805,12063
707,4187,6664
1742,9317,24877
1194,8456,17119
1783,9406,24752
