Initialize SIGNATURE TABLE
ST_SET: 1
ST_WAY: 256
ST_TAG_BIT: 16
ST_TAG_MASK: ffff

Initialize PATTERN TABLE
PT_SET: 512
PT_WAY: 4
SIG_DELTA_BIT: 7
C_SIG_BIT: 4
C_DELTA_BIT: 4

Initialize PREFETCH FILTER
FILTER_SET: 1024

*** ChampSim Multicore Out-of-Order Simulator ***

Warmup Instructions: 50000000
Simulation Instructions: 50000000
Number of CPUs: 1
LLC sets: 2048
LLC ways: 16
Off-chip DRAM Size: 4096 MB Channels: 1 Width: 64-bit Data Rate: 3200 MT/s

CPU 0 runs /ChampSim-master-BTBX/dpc3_traces/server_019.champsimtrace.xz
Basic BTB sets: 4096 ways: 4 indirect buffer size: 4096 RAS size: 64
CPU 0 L1D next line prefetcher
Heartbeat CPU 0 instructions: 10000002 cycles: 3624942 heartbeat IPC: 2.75867 cumulative IPC: 2.75867 (Simulation time: 0 hr 0 min 19 sec) 
Heartbeat CPU 0 instructions: 20000003 cycles: 7251208 heartbeat IPC: 2.75766 cumulative IPC: 2.75816 (Simulation time: 0 hr 0 min 37 sec) 
Heartbeat CPU 0 instructions: 30000002 cycles: 10876225 heartbeat IPC: 2.75861 cumulative IPC: 2.75831 (Simulation time: 0 hr 0 min 55 sec) 
Heartbeat CPU 0 instructions: 40000002 cycles: 14513243 heartbeat IPC: 2.74951 cumulative IPC: 2.7561 (Simulation time: 0 hr 1 min 13 sec) 
Heartbeat CPU 0 instructions: 50000001 cycles: 18138779 heartbeat IPC: 2.75821 cumulative IPC: 2.75653 (Simulation time: 0 hr 1 min 32 sec) 

Warmup complete CPU 0 instructions: 50000001 cycles: 18138779 (Simulation time: 0 hr 1 min 32 sec) 

Heartbeat CPU 0 instructions: 60000000 cycles: 40162540 heartbeat IPC: 0.454055 cumulative IPC: 0.454055 (Simulation time: 0 hr 1 min 56 sec) 
Heartbeat CPU 0 instructions: 70000002 cycles: 65861772 heartbeat IPC: 0.389117 cumulative IPC: 0.419085 (Simulation time: 0 hr 2 min 19 sec) 
Heartbeat CPU 0 instructions: 80000002 cycles: 88708203 heartbeat IPC: 0.437705 cumulative IPC: 0.425113 (Simulation time: 0 hr 2 min 42 sec) 
Heartbeat CPU 0 instructions: 90000002 cycles: 108524536 heartbeat IPC: 0.504634 cumulative IPC: 0.442548 (Simulation time: 0 hr 3 min 5 sec) 
Heartbeat CPU 0 instructions: 100000002 cycles: 128257459 heartbeat IPC: 0.506767 cumulative IPC: 0.454056 (Simulation time: 0 hr 3 min 28 sec) 
Finished CPU 0 instructions: 50000001 cycles: 110118680 cumulative IPC: 0.454056 (Simulation time: 0 hr 3 min 28 sec) 

ChampSim completed all CPUs

Region of Interest Statistics

CPU 0
XXX cumulative-IPC 0.454056
XXX instructions 50000001
XXX cycles 110118680
L1D TOTAL     ACCESS:   19146982  HIT:   16922630  MISS:    2224352
L1D LOAD      ACCESS:    7339186  HIT:    6608324  MISS:     730862
L1D RFO       ACCESS:    5556348  HIT:    4653679  MISS:     902669
L1D PREFETCH  ACCESS:    6251448  HIT:    5660627  MISS:     590821
L1D WRITEBACK ACCESS:          0  HIT:          0  MISS:          0
L1D PREFETCH  REQUESTED:    7380531  ISSUED:    7227676
XXX L1D-USEFUL 221038
XXX L1D-USELESS 369691
L1D AVERAGE MISS LATENCY: 178.134 cycles
L1I TOTAL     ACCESS:   13746856  HIT:   11016120  MISS:    2730736
L1I LOAD      ACCESS:   10138514  HIT:    8485210  MISS:    1653304
L1I RFO       ACCESS:          0  HIT:          0  MISS:          0
L1I PREFETCH  ACCESS:    3608342  HIT:    2530910  MISS:    1077432
L1I WRITEBACK ACCESS:          0  HIT:          0  MISS:          0
L1I PREFETCH  REQUESTED:    6105801  ISSUED:    6105801
XXX L1I-USEFUL 639666
XXX L1I-USELESS 437759
L1I AVERAGE MISS LATENCY: 16.221 cycles
L2C TOTAL     ACCESS:    7759453  HIT:    5840278  MISS:    1919175
L2C LOAD      ACCESS:    2009235  HIT:    1615778  MISS:     393457
L2C RFO       ACCESS:     902257  HIT:      18126  MISS:     884131
L2C PREFETCH  ACCESS:    3672933  HIT:    3033113  MISS:     639820
L2C WRITEBACK ACCESS:    1175028  HIT:    1173261  MISS:       1767
L2C PREFETCH  REQUESTED:    4750140  ISSUED:    4746024
XXX L2C-USEFUL 38052
XXX L2C-USELESS 600717
L2C AVERAGE MISS LATENCY: 207.113 cycles
LLC TOTAL     ACCESS:    4122386  HIT:    2521688  MISS:    1600698
LLC LOAD      ACCESS:     393273  HIT:     218472  MISS:     174801
LLC RFO       ACCESS:     884075  HIT:     115473  MISS:     768602
LLC PREFETCH  ACCESS:    1733455  HIT:    1078166  MISS:     655289
LLC WRITEBACK ACCESS:    1111583  HIT:    1109577  MISS:       2006
LLC PREFETCH  REQUESTED:          0  ISSUED:          0
XXX LLC-USEFUL 56152
XXX LLC-USELESS 597934
LLC AVERAGE MISS LATENCY: 261.775 cycles
Major fault: 0 Minor fault: 25693
XXX disp-0 1787933
XXX disp-1 0
XXX disp-2 0
XXX disp-3 839498
XXX disp-4 1104598
XXX disp-5 1071515
XXX disp-6 1403088
XXX disp-7 609072
XXX disp-8 576478
XXX disp-9 367400
XXX disp-10 232608
XXX disp-11 203360
XXX disp-12 250140
XXX disp-13 121106
XXX disp-14 123033
XXX disp-15 133356
XXX disp-16 192658
XXX disp-17 67980
XXX disp-18 200415
XXX disp-19 158004
XXX disp-20 95787
XXX disp-21 30835
XXX disp-22 9129
XXX disp-23 188322
XXX disp-24 0
XXX disp-25 0
XXX disp-26 0
XXX disp-27 0
XXX disp-28 0
XXX disp-29 0
XXX disp-30 0
XXX disp-31 0
XXX disp-32 0
XXX disp-33 0
XXX disp-34 0
XXX disp-35 0
XXX disp-36 0
XXX disp-37 0
XXX disp-38 0
XXX disp-39 0
XXX disp-40 0
XXX disp-41 0
XXX disp-42 0
XXX disp-43 0
XXX disp-44 0
XXX disp-45 0
XXX disp-46 96169
XXX disp-47 0
XXX disp-48 0
XXX disp-49 0
XXX disp-50 0
XXX disp-51 0
XXX disp-52 0
XXX disp-53 0
XXX disp-54 0
XXX disp-55 0
XXX disp-56 0
XXX disp-57 0
XXX disp-58 0
XXX disp-59 0
XXX disp-60 0
XXX disp-61 0
XXX disp-62 0
XXX disp-63 0
XXX disp-64 0
XXX disp-65 0
XXX diffBits-0 1787933
XXX diffBits-1 0
XXX diffBits-2 719884
XXX diffBits-3 705410
XXX diffBits-4 437011
XXX diffBits-5 1019837
XXX diffBits-6 778022
XXX diffBits-7 549682
XXX diffBits-8 535104
XXX diffBits-9 968129
XXX diffBits-10 286611
XXX diffBits-11 334228
XXX diffBits-12 101524
XXX diffBits-13 258474
XXX diffBits-14 102332
XXX diffBits-15 134526
XXX diffBits-16 304032
XXX diffBits-17 33458
XXX diffBits-18 110111
XXX diffBits-19 286048
XXX diffBits-20 95720
XXX diffBits-21 29750
XXX diffBits-22 188489
XXX diffBits-23 0
XXX diffBits-24 0
XXX diffBits-25 0
XXX diffBits-26 0
XXX diffBits-27 0
XXX diffBits-28 0
XXX diffBits-29 0
XXX diffBits-30 0
XXX diffBits-31 0
XXX diffBits-32 0
XXX diffBits-33 0
XXX diffBits-34 0
XXX diffBits-35 0
XXX diffBits-36 0
XXX diffBits-37 0
XXX diffBits-38 0
XXX diffBits-39 0
XXX diffBits-40 0
XXX diffBits-41 0
XXX diffBits-42 0
XXX diffBits-43 0
XXX diffBits-44 0
XXX diffBits-45 96169
XXX diffBits-46 0
XXX diffBits-47 0
XXX diffBits-48 0
XXX diffBits-49 0
XXX diffBits-50 0
XXX diffBits-51 0
XXX diffBits-52 0
XXX diffBits-53 0
XXX diffBits-54 0
XXX diffBits-55 0
XXX diffBits-56 0
XXX diffBits-57 0
XXX diffBits-58 0
XXX diffBits-59 0
XXX diffBits-60 0
XXX diffBits-61 0
XXX diffBits-62 0
XXX diffBits-63 0
XXX diffBits-64 0
XXX diffBits-65 0
CPU 0 L1D next line prefetcher final stats

DRAM Statistics
 CHANNEL 0
 RQ ROW_BUFFER_HIT:     411985  ROW_BUFFER_MISS:    1186597
 DBUS_CONGESTED:    1491086
 WQ ROW_BUFFER_HIT:     241549  ROW_BUFFER_MISS:     695184  FULL:          0

 AVG_CONGESTED_CYCLE: 6

CPU 0 Branch Prediction Accuracy: 97.5927% MPKI: 4.0727 Average ROB Occupancy at Mispredict: 105.938

XXX total_mispredicts 203635
XXX total_target_mispredicts1 137639
XXX total_target_mispredicts2 1591
XXX total_direction_mispredicts 64405
XXX mispredict_on_btb_hit 122370
XXX NOT_BRANCH: 0
XXX BRANCH_DIRECT_JUMP: 0
XXX BRANCH_INDIRECT: 0
XXX BRANCH_CONDITIONAL: 0
XXX BRANCH_DIRECT_CALL: 0
XXX BRANCH_INDIRECT_CALL: 25321
XXX BRANCH_RETURN: 97049
XXX BRANCH_OTHER: 0
Branch types
NOT_BRANCH: 41540675 83.0813%
BRANCH_DIRECT_JUMP: 462381 0.924762%
BRANCH_INDIRECT: 45460 0.09092%
BRANCH_CONDITIONAL: 6209252 12.4185%
BRANCH_DIRECT_CALL: 666238 1.33248%
BRANCH_INDIRECT_CALL: 204728 0.409456%
BRANCH_RETURN: 870973 1.74195%
BRANCH_OTHER: 0 0%

XXX BTB_reads: 2454252
XXX BTB_writes: 16858
XXX PageBTB_reads: 0
XXX PageBTB_writes: 0
XXX PageBTB_readsBeforeWrite: 0
XXX RegionBTB_reads: 0
XXX RegionBTB_writes: 0
XXX RegionBTB_readsBeforeWrite: 0
XXX BTB_4D_Hits 1056406
XXX BTB_6D_Hits 865596
XXX BTB_8D_Hits 964935
XXX BTB_12D_Hits 525791
XXX BTB_18D_Hits 493521
XXX BTB_25D_Hits 100683
XXX BTB_46D_Hits 36134
XXX BTB_Ret_Hits 870718
XXX BTB_4D_Misses 155
XXX BTB_6D_Misses 122
XXX BTB_8D_Misses 483
XXX BTB_12D_Misses 730
XXX BTB_18D_Misses 784
XXX BTB_25D_Misses 3388
XXX BTB_46D_Misses 10941
XXX BTB_Ret_Misses 255
XXX Num_unique_branches 5688
total instructions: 0
wc,tif,trb
5,11,51
11,51,84
9,34,84
8,17,63
4,8,27
7,12,43
8,31,49
4,10,24
15,71,108
9,49,110
56,446,650
12,51,209
20,106,262
16,94,166
8,15,65
6,21,48
18,54,80
6,23,13
6,16,44
7,24,47
12,76,92
5,4,23
8,18,84
6,7,29
12,47,121
7,19,50
14,60,108
5,7,39
7,36,49
18,80,200
27,196,387
6,23,32
8,14,66
9,38,89
6,14,46
13,56,109
8,25,71
5,16,44
6,13,38
10,29,89
11,53,53
508,3522,7646
5,9,22
8,35,45
7,15,46
7,11,44
8,18,90
31,278,161
260,1838,4516
511,4471,6175
5,8,33
101,497,685
10,56,68
6,17,50
6,12,39
9,55,69
184,719,3775
7,11,69
8,33,63
6,5,41
9,53,38
6,36,35
8,17,75
2,0,7
8,51,29
7,11,62
5,8,38
5,2,37
8,35,45
6,13,63
7,23,70
7,18,51
7,14,61
7,26,29
5,7,51
10,47,53
13,54,174
5,9,26
7,35,41
9,45,128
5,10,49
3,4,26
12,42,106
7,37,38
466,3854,6308
8,52,65
18,109,185
9,24,81
9,34,65
23,177,204
5,8,38
9,28,59
11,54,109
3,16,35
9,43,46
15,90,169
6,15,50
6,8,58
3,5,23
8,21,100
11,43,106
7,22,54
8,41,39
8,28,52
8,43,51
8,26,54
8,33,47
7,30,46
4,10,30
5,6,25
9,44,96
7,41,35
7,20,62
66,378,954
5,9,34
50,379,758
5,12,59
7,19,54
7,16,59
9,32,57
8,23,57
5,16,30
7,27,46
9,43,88
20,72,297
14,133,121
17,43,166
56,446,711
18,73,221
10,64,66
10,66,58
7,16,39
166,1183,1076
6,9,65
4,4,26
8,27,53
8,37,43
6,25,48
4,6,18
7,24,31
12,58,99
16,130,104
14,41,177
10,51,73
7,24,31
8,16,109
8,26,54
11,44,85
58,373,615
65,596,504
6,23,13
11,67,76
8,61,62
58,152,902
4,2,30
5,6,51
16,92,95
9,45,74
49,195,743
14,132,95
11,54,81
8,26,88
9,70,55
9,23,100
9,29,90
6,11,25
5,18,62
28,132,434
5,5,45
6,12,32
11,83,66
6,14,38
12,68,115
11,73,62
5,7,60
12,51,149
6,8,71
19,160,127
6,16,52
7,33,42
9,49,50
7,27,53
3,7,20
13,24,109
10,60,56
12,70,88
5,12,44
5,7,50
8,24,56
9,28,120
4,6,45
5,11,14
22,120,202
9,22,83
7,40,40
5,9,39
11,59,113
8,26,54
6,21,15
7,14,59
7,18,51
32,165,420
13,79,84
4,13,40
10,18,132
6,11,50
8,26,54
7,30,46
9,34,53
17,139,146
4,3,32
12,93,87
7,43,77
5,11,30
7,11,58
18,97,208
7,21,34
11,33,69
10,34,96
11,39,61
9,57,68
4,12,27
7,34,21
12,73,130
7,16,55
7,18,58
5,8,36
5,9,34
9,24,87
8,41,39
15,68,181
5,9,26
8,33,47
55,271,953
14,117,87
15,51,138
6,11,65
26,148,221
8,36,68
8,26,54
9,53,76
6,24,65
9,26,73
17,67,223
11,65,60
14,75,109
5,16,11
8,22,78
21,155,170
5,12,34
7,20,53
6,18,50
24,205,181
6,5,43
8,30,102
6,14,54
57,361,496
7,24,56
4,5,34
8,21,59
4,15,33
12,33,204
6,6,62
5,9,36
11,50,53
5,10,31
6,8,54
24,124,220
11,37,100
8,22,58
6,19,41
7,27,53
8,35,96
12,26,122
25,209,204
8,28,56
44,158,683
165,1064,1659
12,52,122
4,29,35
8,69,64
8,27,73
14,65,132
6,13,62
4,6,37
7,25,30
24,129,263
4,9,21
10,43,89
7,17,38
12,36,118
10,31,69
7,28,27
9,47,79
8,22,58
8,38,56
7,40,79
8,66,55
9,41,118
8,35,64
11,67,76
11,32,97
8,30,71
13,104,97
8,25,55
355,2193,4814
5,3,32
11,36,136
7,12,43
5,6,33
12,47,164
7,12,43
10,64,79
6,37,59
8,24,77
12,49,101
7,15,54
4,17,47
6,14,88
5,16,55
3,8,20
9,32,73
9,28,91
12,78,102
8,17,63
3,2,14
9,31,60
7,18,43
10,63,82
5,10,47
14,60,182
11,82,67
7,34,83
5,10,41
241,1634,4069
17,91,160
6,17,47
4,10,45
10,72,52
85,390,1401
7,38,37
89,453,1360
23,99,184
7,25,51
5,11,14
6,15,35
13,40,165
10,56,88
8,22,82
8,39,41
8,68,64
9,58,88
7,26,59
3,0,24
15,124,91
9,17,82
34,291,231
15,100,89
7,26,29
12,54,100
5,15,50
6,1,43
19,114,145
2,1,23
12,52,104
14,81,109
8,53,27
9,35,91
8,35,45
265,2946,2688
8,30,71
9,55,50
8,30,50
9,36,83
13,87,52
11,61,96
5,8,32
7,22,54
6,8,40
7,20,49
26,195,185
4,25,39
5,3,43
1,1,8
13,49,181
6,8,28
9,23,112
30,182,427
2,1,15
8,24,56
3,10,49
7,12,61
7,27,68
14,74,97
7,15,40
13,56,195
9,18,105
9,45,60
6,12,57
5,2,42
13,75,106
10,44,92
18,70,264
11,47,96
11,19,138
248,561,2952
11,66,95
4,8,54
8,67,59
10,46,78
8,27,53
11,49,86
18,113,155
14,53,189
20,161,220
7,10,65
7,36,19
10,18,80
17,92,163
6,20,55
6,7,49
5,17,48
9,27,99
103,700,790
4,0,31
3,10,38
6,4,63
3,6,18
7,24,77
8,20,60
8,24,56
7,37,43
9,36,75
52,202,1008
7,9,60
11,37,106
11,26,115
11,30,161
11,58,69
5,7,24
484,3553,6603
18,171,125
6,51,73
3,7,46
24,99,297
3,1,23
8,24,56
6,16,60
7,9,62
8,47,33
143,754,2519
6,17,52
68,349,922
12,85,115
9,40,49
8,27,73
8,50,69
12,41,167
267,2076,4433
339,4171,2658
9,20,128
6,19,57
9,50,95
13,65,111
6,9,55
6,25,30
5,11,33
9,45,68
6,22,54
14,69,150
22,101,241
8,16,64
8,32,87
554,4960,6286
8,60,61
12,45,105
17,124,149
9,54,51
10,49,81
17,67,146
5,8,33
4,3,36
8,25,55
349,3086,4190
6,8,36
7,27,28
20,140,102
5,6,46
10,45,79
468,2517,7527
18,124,188
12,62,100
6,16,51
26,173,198
10,28,127
6,26,59
19,116,177
8,20,60
7,6,69
17,92,159
5,9,26
259,912,5334
22,119,179
5,10,45
9,32,82
4,15,45
285,2605,3472
6,17,49
13,82,168
6,37,81
11,61,102
11,44,103
