Initialize SIGNATURE TABLE
ST_SET: 1
ST_WAY: 256
ST_TAG_BIT: 16
ST_TAG_MASK: ffff

Initialize PATTERN TABLE
PT_SET: 512
PT_WAY: 4
SIG_DELTA_BIT: 7
C_SIG_BIT: 4
C_DELTA_BIT: 4

Initialize PREFETCH FILTER
FILTER_SET: 1024

*** ChampSim Multicore Out-of-Order Simulator ***

Warmup Instructions: 50000000
Simulation Instructions: 50000000
Number of CPUs: 1
LLC sets: 2048
LLC ways: 16
Off-chip DRAM Size: 4096 MB Channels: 1 Width: 64-bit Data Rate: 3200 MT/s

CPU 0 runs /ChampSim-master-BTBX/dpc3_traces/server_022.champsimtrace.xz
Basic BTB sets: 4096 ways: 4 indirect buffer size: 4096 RAS size: 64
CPU 0 L1D next line prefetcher
Heartbeat CPU 0 instructions: 10000002 cycles: 3625747 heartbeat IPC: 2.75805 cumulative IPC: 2.75805 (Simulation time: 0 hr 0 min 19 sec) 
Heartbeat CPU 0 instructions: 20000001 cycles: 7257769 heartbeat IPC: 2.75329 cumulative IPC: 2.75567 (Simulation time: 0 hr 0 min 37 sec) 
Heartbeat CPU 0 instructions: 30000003 cycles: 10883510 heartbeat IPC: 2.75806 cumulative IPC: 2.75646 (Simulation time: 0 hr 0 min 55 sec) 
Heartbeat CPU 0 instructions: 40000003 cycles: 14516535 heartbeat IPC: 2.75253 cumulative IPC: 2.75548 (Simulation time: 0 hr 1 min 14 sec) 
Heartbeat CPU 0 instructions: 50000002 cycles: 18139613 heartbeat IPC: 2.76008 cumulative IPC: 2.7564 (Simulation time: 0 hr 1 min 32 sec) 

Warmup complete CPU 0 instructions: 50000002 cycles: 18139613 (Simulation time: 0 hr 1 min 32 sec) 

Heartbeat CPU 0 instructions: 60000002 cycles: 37187065 heartbeat IPC: 0.525005 cumulative IPC: 0.525005 (Simulation time: 0 hr 1 min 55 sec) 
Heartbeat CPU 0 instructions: 70000001 cycles: 56256064 heartbeat IPC: 0.524411 cumulative IPC: 0.524708 (Simulation time: 0 hr 2 min 18 sec) 
Heartbeat CPU 0 instructions: 80000001 cycles: 75159430 heartbeat IPC: 0.529006 cumulative IPC: 0.526133 (Simulation time: 0 hr 2 min 40 sec) 
Heartbeat CPU 0 instructions: 90000000 cycles: 94297779 heartbeat IPC: 0.522511 cumulative IPC: 0.525223 (Simulation time: 0 hr 3 min 4 sec) 
Heartbeat CPU 0 instructions: 100000000 cycles: 113271690 heartbeat IPC: 0.527039 cumulative IPC: 0.525585 (Simulation time: 0 hr 3 min 26 sec) 
Finished CPU 0 instructions: 50000002 cycles: 95132078 cumulative IPC: 0.525585 (Simulation time: 0 hr 3 min 26 sec) 

ChampSim completed all CPUs

Region of Interest Statistics

CPU 0
XXX cumulative-IPC 0.525585
XXX instructions 50000002
XXX cycles 95132078
L1D TOTAL     ACCESS:   19656794  HIT:   17444931  MISS:    2211863
L1D LOAD      ACCESS:    7471337  HIT:    6792351  MISS:     678986
L1D RFO       ACCESS:    5936390  HIT:    4955792  MISS:     980598
L1D PREFETCH  ACCESS:    6249067  HIT:    5696788  MISS:     552279
L1D WRITEBACK ACCESS:          0  HIT:          0  MISS:          0
L1D PREFETCH  REQUESTED:    7517548  ISSUED:    7346302
XXX L1D-USEFUL 230238
XXX L1D-USELESS 322046
L1D AVERAGE MISS LATENCY: 170.412 cycles
L1I TOTAL     ACCESS:   14595413  HIT:   11495164  MISS:    3100249
L1I LOAD      ACCESS:   10481139  HIT:    8598304  MISS:    1882835
L1I RFO       ACCESS:          0  HIT:          0  MISS:          0
L1I PREFETCH  ACCESS:    4114274  HIT:    2896860  MISS:    1217414
L1I WRITEBACK ACCESS:          0  HIT:          0  MISS:          0
L1I PREFETCH  REQUESTED:    6951975  ISSUED:    6951975
XXX L1I-USEFUL 717642
XXX L1I-USELESS 499766
L1I AVERAGE MISS LATENCY: 15.439 cycles
L2C TOTAL     ACCESS:    8278380  HIT:    6380953  MISS:    1897427
L2C LOAD      ACCESS:    2137788  HIT:    1825131  MISS:     312657
L2C RFO       ACCESS:     980084  HIT:      19577  MISS:     960507
L2C PREFETCH  ACCESS:    3974938  HIT:    3353592  MISS:     621346
L2C WRITEBACK ACCESS:    1185570  HIT:    1182653  MISS:       2917
L2C PREFETCH  REQUESTED:    4915970  ISSUED:    4910126
XXX L2C-USEFUL 37576
XXX L2C-USELESS 583754
L2C AVERAGE MISS LATENCY: 201.006 cycles
LLC TOTAL     ACCESS:    4036738  HIT:    2631890  MISS:    1404848
LLC LOAD      ACCESS:     312489  HIT:     229917  MISS:      82572
LLC RFO       ACCESS:     960443  HIT:     142632  MISS:     817811
LLC PREFETCH  ACCESS:    1643822  HIT:    1141442  MISS:     502380
LLC WRITEBACK ACCESS:    1119984  HIT:    1117899  MISS:       2085
LLC PREFETCH  REQUESTED:          0  ISSUED:          0
XXX LLC-USEFUL 31487
XXX LLC-USELESS 470683
LLC AVERAGE MISS LATENCY: 274.953 cycles
Major fault: 0 Minor fault: 23508
XXX disp-0 1834546
XXX disp-1 0
XXX disp-2 0
XXX disp-3 838773
XXX disp-4 846492
XXX disp-5 1134289
XXX disp-6 1432810
XXX disp-7 641195
XXX disp-8 618577
XXX disp-9 394475
XXX disp-10 247164
XXX disp-11 210640
XXX disp-12 129005
XXX disp-13 130166
XXX disp-14 126318
XXX disp-15 143506
XXX disp-16 207047
XXX disp-17 72929
XXX disp-18 215578
XXX disp-19 169964
XXX disp-20 102876
XXX disp-21 32646
XXX disp-22 9847
XXX disp-23 202670
XXX disp-24 0
XXX disp-25 0
XXX disp-26 0
XXX disp-27 0
XXX disp-28 0
XXX disp-29 0
XXX disp-30 0
XXX disp-31 0
XXX disp-32 0
XXX disp-33 0
XXX disp-34 0
XXX disp-35 0
XXX disp-36 0
XXX disp-37 0
XXX disp-38 0
XXX disp-39 0
XXX disp-40 0
XXX disp-41 0
XXX disp-42 0
XXX disp-43 0
XXX disp-44 0
XXX disp-45 0
XXX disp-46 97699
XXX disp-47 0
XXX disp-48 0
XXX disp-49 0
XXX disp-50 0
XXX disp-51 0
XXX disp-52 0
XXX disp-53 0
XXX disp-54 0
XXX disp-55 0
XXX disp-56 0
XXX disp-57 0
XXX disp-58 0
XXX disp-59 0
XXX disp-60 0
XXX disp-61 0
XXX disp-62 0
XXX disp-63 0
XXX disp-64 0
XXX disp-65 0
XXX diffBits-0 1834546
XXX diffBits-1 0
XXX diffBits-2 710416
XXX diffBits-3 455061
XXX diffBits-4 420761
XXX diffBits-5 1092015
XXX diffBits-6 768348
XXX diffBits-7 585884
XXX diffBits-8 574571
XXX diffBits-9 1018928
XXX diffBits-10 307930
XXX diffBits-11 353988
XXX diffBits-12 109005
XXX diffBits-13 135473
XXX diffBits-14 103905
XXX diffBits-15 144738
XXX diffBits-16 327209
XXX diffBits-17 35914
XXX diffBits-18 118647
XXX diffBits-19 307821
XXX diffBits-20 101690
XXX diffBits-21 31804
XXX diffBits-22 202859
XXX diffBits-23 0
XXX diffBits-24 0
XXX diffBits-25 0
XXX diffBits-26 0
XXX diffBits-27 0
XXX diffBits-28 0
XXX diffBits-29 0
XXX diffBits-30 0
XXX diffBits-31 0
XXX diffBits-32 0
XXX diffBits-33 0
XXX diffBits-34 0
XXX diffBits-35 0
XXX diffBits-36 0
XXX diffBits-37 0
XXX diffBits-38 0
XXX diffBits-39 0
XXX diffBits-40 0
XXX diffBits-41 0
XXX diffBits-42 0
XXX diffBits-43 0
XXX diffBits-44 0
XXX diffBits-45 97699
XXX diffBits-46 0
XXX diffBits-47 0
XXX diffBits-48 0
XXX diffBits-49 0
XXX diffBits-50 0
XXX diffBits-51 0
XXX diffBits-52 0
XXX diffBits-53 0
XXX diffBits-54 0
XXX diffBits-55 0
XXX diffBits-56 0
XXX diffBits-57 0
XXX diffBits-58 0
XXX diffBits-59 0
XXX diffBits-60 0
XXX diffBits-61 0
XXX diffBits-62 0
XXX diffBits-63 0
XXX diffBits-64 0
XXX diffBits-65 0
CPU 0 L1D next line prefetcher final stats

DRAM Statistics
 CHANNEL 0
 RQ ROW_BUFFER_HIT:     425140  ROW_BUFFER_MISS:     977416
 DBUS_CONGESTED:    1340994
 WQ ROW_BUFFER_HIT:     245099  ROW_BUFFER_MISS:     658157  FULL:          0

 AVG_CONGESTED_CYCLE: 6

CPU 0 Branch Prediction Accuracy: 98.1104% MPKI: 3.09466 Average ROB Occupancy at Mispredict: 86.8382

XXX total_mispredicts 154733
XXX total_target_mispredicts1 139859
XXX total_target_mispredicts2 1579
XXX total_direction_mispredicts 13295
XXX mispredict_on_btb_hit 123688
XXX NOT_BRANCH: 0
XXX BRANCH_DIRECT_JUMP: 0
XXX BRANCH_INDIRECT: 0
XXX BRANCH_CONDITIONAL: 0
XXX BRANCH_DIRECT_CALL: 0
XXX BRANCH_INDIRECT_CALL: 29430
XXX BRANCH_RETURN: 94258
XXX BRANCH_OTHER: 0
Branch types
NOT_BRANCH: 41811066 83.6221%
BRANCH_DIRECT_JUMP: 445739 0.891478%
BRANCH_INDIRECT: 48876 0.097752%
BRANCH_CONDITIONAL: 5859386 11.7188%
BRANCH_DIRECT_CALL: 758265 1.51653%
BRANCH_INDIRECT_CALL: 159103 0.318206%
BRANCH_RETURN: 917370 1.83474%
BRANCH_OTHER: 0 0%

XXX BTB_reads: 1859988
XXX BTB_writes: 17750
XXX PageBTB_reads: 0
XXX PageBTB_writes: 0
XXX PageBTB_readsBeforeWrite: 0
XXX RegionBTB_reads: 0
XXX RegionBTB_writes: 0
XXX RegionBTB_readsBeforeWrite: 0
XXX BTB_4D_Hits 788931
XXX BTB_6D_Hits 930476
XXX BTB_8D_Hits 1089855
XXX BTB_12D_Hits 451509
XXX BTB_18D_Hits 567488
XXX BTB_25D_Hits 116313
XXX BTB_46D_Hits 37935
XXX BTB_Ret_Hits 917292
XXX BTB_4D_Misses 79
XXX BTB_6D_Misses 46
XXX BTB_8D_Misses 441
XXX BTB_12D_Misses 642
XXX BTB_18D_Misses 884
XXX BTB_25D_Misses 3144
XXX BTB_46D_Misses 12436
XXX BTB_Ret_Misses 78
XXX Num_unique_branches 4564
total instructions: 0
wc,tif,trb
4,10,45
11,51,84
11,45,123
8,17,63
4,8,27
7,12,43
8,31,49
4,10,24
16,65,125
9,49,110
66,598,770
12,51,209
20,106,262
14,110,136
10,15,87
6,21,48
19,82,107
6,23,13
6,16,44
7,24,47
13,85,102
5,4,23
8,18,84
6,7,29
12,47,121
6,14,30
15,62,111
5,7,39
8,36,60
16,66,176
20,133,275
6,23,32
8,14,66
9,38,89
5,13,42
13,56,109
7,25,64
4,9,26
6,13,38
8,19,61
12,57,53
389,2590,5957
5,9,22
7,24,45
7,13,62
7,11,44
8,18,90
24,198,110
292,2074,5080
640,5563,7682
4,4,33
123,492,850
10,69,55
5,16,40
6,12,39
11,63,91
194,759,3985
7,11,69
7,21,50
6,5,41
8,48,32
6,36,35
6,13,56
2,0,7
7,34,21
7,11,62
4,8,33
4,0,30
8,35,45
5,11,56
8,27,91
7,18,51
7,14,61
7,26,29
5,7,51
10,48,52
12,48,149
6,12,48
6,35,41
7,33,102
6,13,71
3,5,30
10,28,66
7,37,38
499,4125,6768
5,23,41
14,89,117
10,27,103
10,43,87
22,179,193
4,8,19
8,25,55
13,64,149
3,16,35
8,40,40
18,115,213
7,18,58
4,2,28
3,5,23
8,21,100
10,40,98
7,22,54
8,41,39
8,28,52
7,31,44
8,26,54
7,33,42
7,30,46
4,10,30
5,6,25
8,26,89
7,41,35
5,11,41
64,370,918
5,9,34
48,306,811
5,12,59
5,14,34
7,16,59
9,32,57
7,23,46
5,16,30
5,13,30
9,43,88
21,73,317
15,123,128
11,34,113
80,654,1031
25,164,335
10,62,68
7,19,36
7,16,39
156,1111,905
5,6,43
4,4,26
8,27,53
8,37,43
6,25,48
4,6,18
7,24,31
17,61,143
14,112,92
12,24,159
10,51,73
6,19,31
5,8,54
7,25,50
9,44,67
69,428,672
58,489,410
5,12,13
11,72,71
10,65,78
9,43,116
3,1,20
4,6,46
14,89,97
6,23,37
43,153,659
20,158,133
13,87,84
6,8,56
8,52,48
9,23,100
6,16,44
4,4,12
6,26,79
17,58,260
5,5,45
6,12,32
10,64,60
6,14,38
9,55,71
11,73,62
4,7,49
8,20,80
7,10,88
17,120,113
4,10,24
7,33,42
7,20,35
6,9,46
3,7,20
13,24,109
11,42,85
8,26,54
5,12,44
5,7,50
8,24,56
9,28,120
4,6,45
6,13,23
26,189,249
9,22,83
7,40,40
5,9,39
13,65,141
7,9,46
5,14,11
6,8,46
7,19,36
16,72,213
13,79,84
4,13,40
12,24,176
6,11,50
7,26,43
6,15,36
11,63,66
19,120,147
4,3,32
12,78,102
6,39,62
4,10,26
7,11,58
17,104,202
7,21,34
10,32,63
8,22,58
8,32,48
11,76,99
4,12,27
5,10,21
13,93,135
5,3,38
7,18,58
5,8,36
5,9,34
11,32,129
8,42,38
15,68,196
5,9,26
8,33,47
52,276,865
14,91,99
14,30,124
4,4,52
17,74,127
6,20,56
7,22,47
9,53,76
6,24,65
7,24,57
13,41,141
8,42,38
14,75,109
5,16,11
7,13,62
23,183,194
4,11,28
7,20,53
5,4,39
25,189,190
6,5,43
8,30,102
6,14,54
32,232,236
7,24,56
4,5,34
7,13,48
4,15,33
12,33,204
6,6,62
5,9,36
11,45,58
5,10,31
6,8,54
24,143,199
10,38,92
8,22,58
6,19,41
6,12,49
11,59,141
13,35,132
17,103,114
9,38,65
38,138,601
16,84,136
12,38,126
4,29,35
8,69,64
7,22,53
13,67,123
6,13,62
5,9,43
6,12,24
35,153,386
4,9,21
11,46,111
8,38,42
12,42,110
11,58,67
7,28,27
9,47,79
8,22,58
6,16,34
6,38,70
8,66,55
9,41,118
10,48,85
11,67,76
10,9,83
8,30,71
10,70,68
7,25,44
368,2441,4843
5,3,32
11,36,136
7,12,43
5,6,33
11,47,139
7,12,43
10,77,66
5,31,40
8,24,77
10,33,69
7,15,54
4,17,47
6,14,88
5,16,55
3,8,20
10,36,94
9,28,91
12,88,112
8,17,63
3,2,14
8,28,52
7,18,43
13,77,103
6,18,58
15,62,193
11,82,67
7,26,85
5,10,41
255,1724,4293
18,102,176
6,17,47
4,10,45
8,37,43
85,392,1415
6,19,31
99,487,1482
27,107,206
7,25,51
5,11,14
5,11,20
14,45,185
9,38,81
12,30,118
8,39,41
11,75,106
9,58,88
5,18,37
2,0,19
12,78,74
10,23,101
44,398,266
18,113,133
6,12,24
10,53,77
5,15,50
6,1,43
18,156,154
2,1,23
13,57,95
8,32,48
8,53,27
7,15,61
8,35,45
432,4857,4426
7,24,52
8,30,50
8,30,50
10,38,92
8,48,32
11,61,96
4,6,27
7,22,54
6,8,40
7,20,49
101,754,785
4,25,39
5,3,43
1,1,8
15,57,223
6,8,28
11,32,153
18,116,239
2,1,15
8,24,56
4,15,69
7,12,61
5,12,39
13,85,86
7,15,40
14,59,217
9,18,105
9,50,69
6,12,57
4,2,37
15,117,120
12,53,119
13,48,173
8,30,50
10,26,106
209,534,2534
11,66,95
4,8,54
12,94,94
10,46,78
8,27,53
8,33,47
19,92,167
14,53,189
20,155,226
6,9,55
7,36,19
10,18,80
14,62,134
6,20,55
5,7,45
5,17,48
7,9,67
28,166,217
3,0,12
3,10,38
6,6,51
2,6,13
8,37,89
7,13,56
8,24,56
6,37,39
11,47,98
66,258,1302
7,7,54
10,23,95
9,30,120
8,22,100
10,50,64
5,7,24
534,3945,7329
13,94,83
6,51,73
5,14,65
27,124,307
3,1,23
8,24,56
6,16,60
6,9,51
8,47,33
137,748,2485
6,17,52
82,473,1072
11,52,117
8,43,37
9,40,79
9,60,78
10,30,134
282,2191,4693
434,4747,3529
12,29,161
6,19,57
10,44,108
12,90,95
6,9,55
7,45,35
3,3,13
9,45,68
6,22,54
8,34,83
29,139,350
7,14,57
6,21,54
617,5604,7099
10,64,89
11,40,99
17,109,148
10,73,57
10,42,88
21,89,196
5,8,33
4,3,36
8,25,55
358,3253,4104
6,10,34
7,27,28
17,121,81
4,4,37
7,26,43
379,2007,5938
18,98,180
13,61,112
6,16,51
20,128,121
10,28,127
5,13,47
12,71,77
7,14,47
9,12,113
15,80,115
4,6,33
277,975,5778
27,125,164
4,16,35
11,44,114
4,15,45
320,3032,3910
4,2,32
15,88,177
10,83,129
6,24,47
6,17,54
