Initialize SIGNATURE TABLE
ST_SET: 1
ST_WAY: 256
ST_TAG_BIT: 16
ST_TAG_MASK: ffff

Initialize PATTERN TABLE
PT_SET: 512
PT_WAY: 4
SIG_DELTA_BIT: 7
C_SIG_BIT: 4
C_DELTA_BIT: 4

Initialize PREFETCH FILTER
FILTER_SET: 1024

*** ChampSim Multicore Out-of-Order Simulator ***

Warmup Instructions: 50000000
Simulation Instructions: 50000000
Number of CPUs: 1
LLC sets: 2048
LLC ways: 16
Off-chip DRAM Size: 4096 MB Channels: 1 Width: 64-bit Data Rate: 3200 MT/s

CPU 0 runs /ChampSim-master-BTBX/dpc3_traces/server_010.champsimtrace.xz
Basic BTB sets: 4096 ways: 4 indirect buffer size: 4096 RAS size: 64
CPU 0 L1D next line prefetcher
Heartbeat CPU 0 instructions: 10000000 cycles: 3193508 heartbeat IPC: 3.13135 cumulative IPC: 3.13135 (Simulation time: 0 hr 0 min 18 sec) 
Heartbeat CPU 0 instructions: 20000002 cycles: 6383858 heartbeat IPC: 3.13445 cumulative IPC: 3.1329 (Simulation time: 0 hr 0 min 34 sec) 
Heartbeat CPU 0 instructions: 30000001 cycles: 9577364 heartbeat IPC: 3.13135 cumulative IPC: 3.13239 (Simulation time: 0 hr 0 min 51 sec) 
Heartbeat CPU 0 instructions: 40000000 cycles: 12767393 heartbeat IPC: 3.13477 cumulative IPC: 3.13298 (Simulation time: 0 hr 1 min 8 sec) 
Heartbeat CPU 0 instructions: 50000003 cycles: 15962776 heartbeat IPC: 3.12952 cumulative IPC: 3.13229 (Simulation time: 0 hr 1 min 25 sec) 

Warmup complete CPU 0 instructions: 50000003 cycles: 15962776 (Simulation time: 0 hr 1 min 25 sec) 

Heartbeat CPU 0 instructions: 60000000 cycles: 27116535 heartbeat IPC: 0.896558 cumulative IPC: 0.896558 (Simulation time: 0 hr 1 min 41 sec) 
Heartbeat CPU 0 instructions: 70000000 cycles: 38496232 heartbeat IPC: 0.878758 cumulative IPC: 0.887569 (Simulation time: 0 hr 1 min 58 sec) 
Heartbeat CPU 0 instructions: 80000003 cycles: 50001783 heartbeat IPC: 0.869146 cumulative IPC: 0.881342 (Simulation time: 0 hr 2 min 15 sec) 
Heartbeat CPU 0 instructions: 90000002 cycles: 61119682 heartbeat IPC: 0.89945 cumulative IPC: 0.8858 (Simulation time: 0 hr 2 min 31 sec) 
Heartbeat CPU 0 instructions: 100000003 cycles: 86205305 heartbeat IPC: 0.398635 cumulative IPC: 0.711819 (Simulation time: 0 hr 2 min 57 sec) 
Finished CPU 0 instructions: 50000000 cycles: 70242529 cumulative IPC: 0.711819 (Simulation time: 0 hr 2 min 57 sec) 

ChampSim completed all CPUs

Region of Interest Statistics

CPU 0
XXX cumulative-IPC 0.711819
XXX instructions 50000000
XXX cycles 70242529
L1D TOTAL     ACCESS:   20719440  HIT:   17492106  MISS:    3227334
L1D LOAD      ACCESS:    8072652  HIT:    6489164  MISS:    1583488
L1D RFO       ACCESS:    4781909  HIT:    4687005  MISS:      94904
L1D PREFETCH  ACCESS:    7864879  HIT:    6315937  MISS:    1548942
L1D WRITEBACK ACCESS:          0  HIT:          0  MISS:          0
L1D PREFETCH  REQUESTED:    8107413  ISSUED:    8007426
XXX L1D-USEFUL 127529
XXX L1D-USELESS 1421386
L1D AVERAGE MISS LATENCY: 22.3711 cycles
L1I TOTAL     ACCESS:   14283883  HIT:   12901980  MISS:    1381903
L1I LOAD      ACCESS:    9852695  HIT:    8990593  MISS:     862102
L1I RFO       ACCESS:          0  HIT:          0  MISS:          0
L1I PREFETCH  ACCESS:    4431188  HIT:    3911387  MISS:     519801
L1I WRITEBACK ACCESS:          0  HIT:          0  MISS:          0
L1I PREFETCH  REQUESTED:    6013249  ISSUED:    6013249
XXX L1I-USEFUL 319386
XXX L1I-USELESS 200391
L1I AVERAGE MISS LATENCY: 17.1567 cycles
L2C TOTAL     ACCESS:    6033522  HIT:    4836447  MISS:    1197075
L2C LOAD      ACCESS:    1906043  HIT:    1631038  MISS:     275005
L2C RFO       ACCESS:      94001  HIT:      49230  MISS:      44771
L2C PREFETCH  ACCESS:    3768062  HIT:    2891692  MISS:     876370
L2C WRITEBACK ACCESS:     265416  HIT:     264487  MISS:        929
L2C PREFETCH  REQUESTED:    5174991  ISSUED:    5174878
XXX L2C-USEFUL 93979
XXX L2C-USELESS 781554
L2C AVERAGE MISS LATENCY: 43.0741 cycles
LLC TOTAL     ACCESS:    2415371  HIT:    2277121  MISS:     138250
LLC LOAD      ACCESS:     274852  HIT:     257911  MISS:      16941
LLC RFO       ACCESS:      44771  HIT:      35786  MISS:       8985
LLC PREFETCH  ACCESS:    1947396  HIT:    1835311  MISS:     112085
LLC WRITEBACK ACCESS:     148352  HIT:     148113  MISS:        239
LLC PREFETCH  REQUESTED:          0  ISSUED:          0
XXX LLC-USEFUL 11796
XXX LLC-USELESS 98986
LLC AVERAGE MISS LATENCY: 164.578 cycles
Major fault: 0 Minor fault: 5599
XXX disp-0 1767731
XXX disp-1 0
XXX disp-2 376
XXX disp-3 1013385
XXX disp-4 1344992
XXX disp-5 583142
XXX disp-6 573666
XXX disp-7 616964
XXX disp-8 378662
XXX disp-9 249690
XXX disp-10 241507
XXX disp-11 130920
XXX disp-12 71776
XXX disp-13 53625
XXX disp-14 61845
XXX disp-15 108711
XXX disp-16 42527
XXX disp-17 69490
XXX disp-18 153234
XXX disp-19 114803
XXX disp-20 252850
XXX disp-21 203557
XXX disp-22 187793
XXX disp-23 160994
XXX disp-24 52503
XXX disp-25 78544
XXX disp-26 31350
XXX disp-27 485
XXX disp-28 24925
XXX disp-29 0
XXX disp-30 0
XXX disp-31 0
XXX disp-32 0
XXX disp-33 0
XXX disp-34 0
XXX disp-35 0
XXX disp-36 0
XXX disp-37 0
XXX disp-38 0
XXX disp-39 0
XXX disp-40 0
XXX disp-41 0
XXX disp-42 0
XXX disp-43 0
XXX disp-44 0
XXX disp-45 0
XXX disp-46 0
XXX disp-47 0
XXX disp-48 0
XXX disp-49 0
XXX disp-50 0
XXX disp-51 0
XXX disp-52 0
XXX disp-53 0
XXX disp-54 0
XXX disp-55 0
XXX disp-56 0
XXX disp-57 0
XXX disp-58 0
XXX disp-59 0
XXX disp-60 0
XXX disp-61 0
XXX disp-62 0
XXX disp-63 13
XXX disp-64 0
XXX disp-65 0
XXX diffBits-0 1767731
XXX diffBits-1 58
XXX diffBits-2 259352
XXX diffBits-3 590505
XXX diffBits-4 739439
XXX diffBits-5 1190515
XXX diffBits-6 529637
XXX diffBits-7 567237
XXX diffBits-8 354842
XXX diffBits-9 442546
XXX diffBits-10 165064
XXX diffBits-11 108777
XXX diffBits-12 166340
XXX diffBits-13 114590
XXX diffBits-14 49598
XXX diffBits-15 79883
XXX diffBits-16 107020
XXX diffBits-17 90394
XXX diffBits-18 92858
XXX diffBits-19 223273
XXX diffBits-20 236807
XXX diffBits-21 137420
XXX diffBits-22 243084
XXX diffBits-23 177773
XXX diffBits-24 0
XXX diffBits-25 109894
XXX diffBits-26 0
XXX diffBits-27 25410
XXX diffBits-28 0
XXX diffBits-29 0
XXX diffBits-30 0
XXX diffBits-31 0
XXX diffBits-32 0
XXX diffBits-33 0
XXX diffBits-34 0
XXX diffBits-35 0
XXX diffBits-36 0
XXX diffBits-37 0
XXX diffBits-38 0
XXX diffBits-39 0
XXX diffBits-40 0
XXX diffBits-41 0
XXX diffBits-42 0
XXX diffBits-43 0
XXX diffBits-44 0
XXX diffBits-45 0
XXX diffBits-46 0
XXX diffBits-47 0
XXX diffBits-48 0
XXX diffBits-49 0
XXX diffBits-50 0
XXX diffBits-51 0
XXX diffBits-52 0
XXX diffBits-53 0
XXX diffBits-54 0
XXX diffBits-55 0
XXX diffBits-56 0
XXX diffBits-57 0
XXX diffBits-58 0
XXX diffBits-59 0
XXX diffBits-60 0
XXX diffBits-61 0
XXX diffBits-62 13
XXX diffBits-63 0
XXX diffBits-64 0
XXX diffBits-65 0
CPU 0 L1D next line prefetcher final stats

DRAM Statistics
 CHANNEL 0
 RQ ROW_BUFFER_HIT:      22400  ROW_BUFFER_MISS:     115606
 DBUS_CONGESTED:      49813
 WQ ROW_BUFFER_HIT:       9606  ROW_BUFFER_MISS:      44504  FULL:          0

 AVG_CONGESTED_CYCLE: 5

CPU 0 Branch Prediction Accuracy: 93.9085% MPKI: 12.2329 Average ROB Occupancy at Mispredict: 56.2445

XXX total_mispredicts 611646
XXX total_target_mispredicts1 373683
XXX total_target_mispredicts2 209636
XXX total_direction_mispredicts 28327
XXX mispredict_on_btb_hit 133148
XXX NOT_BRANCH: 0
XXX BRANCH_DIRECT_JUMP: 0
XXX BRANCH_INDIRECT: 20386
XXX BRANCH_CONDITIONAL: 0
XXX BRANCH_DIRECT_CALL: 4
XXX BRANCH_INDIRECT_CALL: 3834
XXX BRANCH_RETURN: 108924
XXX BRANCH_OTHER: 0
Branch types
NOT_BRANCH: 39958855 79.9177%
BRANCH_DIRECT_JUMP: 449946 0.899892%
BRANCH_INDIRECT: 140210 0.28042%
BRANCH_CONDITIONAL: 7679722 15.3594%
BRANCH_DIRECT_CALL: 701578 1.40316%
BRANCH_INDIRECT_CALL: 168971 0.337942%
BRANCH_RETURN: 900560 1.80112%
BRANCH_OTHER: 0 0%

XXX BTB_reads: 7429612
XXX BTB_writes: 450160
XXX PageBTB_reads: 0
XXX PageBTB_writes: 0
XXX PageBTB_readsBeforeWrite: 0
XXX RegionBTB_reads: 0
XXX RegionBTB_writes: 0
XXX RegionBTB_readsBeforeWrite: 0
XXX BTB_4D_Hits 696373
XXX BTB_6D_Hits 1066445
XXX BTB_8D_Hits 606833
XXX BTB_12D_Hits 232884
XXX BTB_18D_Hits 362274
XXX BTB_25D_Hits 277357
XXX BTB_46D_Hits 10864
XXX BTB_Ret_Hits 863007
XXX BTB_4D_Misses 93827
XXX BTB_6D_Misses 25707
XXX BTB_8D_Misses 58868
XXX BTB_12D_Misses 42458
XXX BTB_18D_Misses 31498
XXX BTB_25D_Misses 73884
XXX BTB_46D_Misses 86365
XXX BTB_Ret_Misses 37553
XXX Num_unique_branches 22935
total instructions: 0
wc,tif,trb
1245,7742,18081
1721,9458,15490
1898,14101,12777
1105,8665,8389
869,5790,10272
79,733,316
3125,14918,24955
709,4478,6262
426,2431,3350
200,1605,2997
538,3842,4228
2555,10977,25201
1152,8270,11783
236,2055,2262
715,3744,11379
840,4496,9416
1338,8805,16921
1020,7582,6385
2788,13674,27045
2290,15106,15340
1317,9415,7916
943,4665,8816
1700,11089,12441
1460,8579,14003
1719,10327,15598
18,131,163
389,3145,2788
1348,8650,10323
2351,13961,18431
300,2052,1641
1441,9945,14648
1062,8079,5841
2047,10377,18022
2041,13149,14742
636,3242,8520
1994,17083,5499
1040,5831,13940
332,2459,3823
577,2954,10216
2120,11421,11740
1903,12360,11516
794,4054,11211
827,6137,6353
606,3126,8457
1603,7451,18203
1086,7164,12796
1968,12377,15237
1565,12347,14814
601,4032,3682
182,959,2275
1301,9479,5748
2169,11436,13996
969,6757,7614
2854,15355,28658
153,622,2993
1502,10910,9900
1008,6122,10819
1239,6308,12746
425,1743,8552
1681,9102,16490
2122,10127,20600
3779,21973,34219
2170,13246,20085
834,3119,11489
1819,11223,17532
1823,13474,11049
2520,12046,25300
2263,11721,12625
14,59,115
1474,8709,15435
2434,11998,19432
1241,6582,13250
1608,8329,17119
756,5954,6458
1643,5291,23766
1751,9610,16941
1004,5111,16415
16,35,231
1256,7959,14108
710,3670,7528
1397,9120,11116
1398,5432,18967
3280,17442,22254
2211,13424,17847
3693,21650,21374
1302,7328,15254
2198,11582,18771
2020,9715,20338
2560,14359,21712
2416,12777,21038
2294,13951,17495
1364,6034,18510
2474,15955,10385
1904,7563,19625
2518,18106,23367
1628,9967,13340
1103,6138,15302
2479,13657,19088
2751,16438,25810
837,4378,14461
1803,12829,13768
1479,6820,19004
1101,4471,16790
3364,21571,16301
1714,9279,16323
2235,12067,22503
850,3612,12750
1287,8226,8843
1014,6249,14743
820,5752,4935
2324,10215,26249
1245,9798,7765
767,4709,8199
2336,14657,23096
1169,7508,11776
3042,14777,28894
1342,6797,13827
1493,9542,11403
1413,6587,15887
1782,9580,16587
43,233,698
890,7800,8922
1672,8954,26744
2787,19138,21839
853,3089,16238
2413,15784,19021
1468,8875,16537
2606,13535,31001
2239,13973,19027
2145,11594,19658
1926,9503,21092
2893,14975,25025
2554,13743,27912
1706,8608,14029
2251,14356,11452
2556,18419,19701
1912,15132,8711
1186,6510,12491
1981,11555,22594
2642,10921,27727
889,5155,8341
1386,8600,11711
1987,9183,18383
1159,6863,14050
1349,9329,9955
908,5007,13459
1100,7288,13174
2698,12676,23547
2365,14483,13120
1313,9465,12772
2775,12307,26625
1919,7490,16848
384,1922,6520
2244,15820,12821
1357,7993,12219
2247,10748,17170
1927,8025,23134
842,4526,11462
2626,11993,28800
1593,9128,13303
2420,14633,16549
2980,15347,23471
1959,7763,22756
980,6519,8813
2796,13751,24091
38,163,611
2208,12742,19951
1171,4117,16436
2793,20351,17362
1369,9304,8105
1361,6688,12740
3442,22626,25654
1255,7303,14411
1945,8299,26262
1194,4831,13657
1896,11063,15652
1218,7785,7164
1772,9984,17412
1345,5517,20565
1282,7813,14970
1965,7246,19191
735,4638,7703
2129,12698,11621
2308,12459,21904
2086,10977,23569
1654,10203,10664
2975,14507,24151
1666,9393,17077
1405,9617,11168
621,2170,12283
2085,12305,17659
1478,5688,19511
1735,8561,16313
3067,14267,30151
1221,10296,7148
2227,10638,22906
947,3943,17575
2621,15232,22515
1558,9102,12698
816,5747,10278
2356,12972,21705
1817,10714,16963
1758,10122,13191
2374,13686,18257
1537,9549,18898
1663,13036,10613
1326,8142,10574
1253,3976,17642
2958,16186,23787
1494,10443,11935
929,4680,10981
1238,9969,11770
1112,5868,9753
2472,13897,23114
1700,9253,14647
2006,8465,20795
3446,17228,31161
1078,6162,17849
3303,14333,34654
2460,13556,24339
712,3333,13723
3996,26131,26326
2539,16868,17816
1995,10949,25940
1711,10219,15878
2075,11046,21591
1255,8181,8317
3068,16375,18882
3081,19268,21306
2525,18036,19502
1795,10118,18383
1626,9888,14330
406,3402,2906
1296,8373,11895
2233,8664,30105
4443,22949,41665
1439,7479,12459
3759,17547,38536
1726,9203,16634
1007,5345,13558
643,4471,7952
2851,13364,24817
1896,9372,14683
1988,9948,17989
3010,16924,22758
880,4785,11289
571,2326,9391
1525,9533,12720
834,4909,10892
2928,17801,16587
1717,8406,13639
1609,7579,15451
1820,11179,15556
2159,14414,12161
602,2208,12102
4786,24437,55855
515,3509,6427
2622,17862,11746
3117,19007,19069
775,4153,9094
1585,7555,16166
186,1236,2196
2154,11675,18839
81,477,547
914,5235,8418
2689,18479,10082
1867,9673,19939
1164,7740,10070
1762,6983,20794
1794,8622,14179
1670,7837,15931
1764,7496,17391
2038,14028,17397
1861,10161,15492
712,3630,9836
1558,8607,12614
2352,14842,16006
2784,14413,27873
3112,12529,31679
2208,8541,19797
2181,12637,21277
944,6273,10401
1213,7946,14583
2275,11469,19196
2674,21800,14096
2012,9662,21360
1332,8861,11270
2680,18445,21417
1871,12339,12199
1917,10014,17439
1119,7870,8595
2244,15481,12234
1148,5344,14869
2177,9572,21054
1299,7450,12656
2819,15860,25885
1698,11433,11041
2132,15368,11337
1184,7076,11103
3018,16433,30981
2044,14229,13598
1865,9169,16183
2324,11602,18830
2695,16006,20245
1494,9505,13732
1857,13313,11074
2359,10015,28147
2628,14464,19161
2215,12947,22066
2238,9710,19128
500,2958,8616
1022,5585,17123
1988,13109,10660
869,5080,8018
1954,14568,15412
2247,12275,32000
3862,24950,26777
831,3113,12276
1957,9055,20506
2408,15563,21836
2068,15702,9530
2044,13663,14189
2459,16174,19093
2469,17275,11757
415,2214,3299
188,574,3994
1399,7304,17341
1454,7660,13604
1367,6399,16444
1676,11211,13154
2865,16866,19009
2904,16321,21019
1265,8499,11085
1881,9838,17901
1314,7694,10535
2089,10317,21216
1319,7038,13257
1217,5505,12551
532,4692,3422
1841,9079,17892
1544,6450,15491
3644,22002,29396
2097,10986,18117
2055,11808,20916
655,4425,4254
1940,13248,14617
3706,12056,36380
1708,12161,11488
3356,17507,29144
3630,21289,25291
2459,16390,22737
2026,10216,21534
768,3208,14190
2365,12964,23207
1711,7826,14529
434,2745,5913
438,2570,4680
1064,7934,7806
1436,8166,14409
597,3607,6676
1825,13496,9939
716,4408,10928
2265,11039,23079
1632,13077,7757
727,3979,12100
1871,9685,18844
1631,9151,9553
1143,8013,7348
827,5241,8436
2514,13214,17720
761,4262,9727
3739,19128,30691
1824,9277,13854
1855,9256,19971
1670,5975,13392
2161,10331,17220
1976,14639,10506
3269,24889,14418
992,5954,8926
2009,10552,16434
1606,9487,13117
2166,10302,17661
1492,11034,17218
1864,10492,14597
2071,13108,13772
1052,6502,5354
1323,6736,12762
1505,9040,12764
1783,11037,12227
1075,4069,16806
185,822,3125
1271,7655,10468
1099,8449,8100
1943,16814,10784
2388,14069,13080
1124,5291,12721
2074,12123,16862
1655,8845,13260
2536,12064,28280
1117,6349,12129
1174,7247,11782
2155,14449,13669
1859,11574,15902
2631,14635,17479
1658,10904,15141
3077,15524,23892
2178,9865,28962
1592,9208,18883
1540,7633,18052
1579,9616,10762
2619,14224,21044
1001,4105,17805
2482,13157,20907
3474,17425,32288
2095,10011,22646
1501,10387,12382
1580,8537,11605
2448,12921,23778
1012,5588,10678
1517,9839,15864
364,2487,5457
1227,9958,3895
1106,6001,11263
3570,19361,30654
2495,13643,19024
2151,11193,20580
1802,9595,13795
3651,15119,42590
2082,9977,27604
1788,12105,16297
453,1162,9160
1101,6914,7626
2217,12646,14758
1209,8885,10318
1762,10088,14489
2877,11465,28958
2468,15007,13342
2131,14074,13305
1594,9573,15200
2293,10521,17688
2142,10931,18285
1871,9522,26526
1319,9897,9581
3871,20016,22633
572,3142,8066
1533,9261,11206
2380,14266,20388
2845,19196,27723
1765,15762,10810
2368,12724,14338
1344,5915,16920
2111,9033,21713
251,766,4532
1764,10519,15782
2260,13401,8573
1954,14310,9464
2806,14996,22334
224,2026,1816
826,3890,12367
780,4650,8806
3443,22220,26697
1698,8415,19875
2448,17254,17382
1654,9166,20239
1704,8387,14431
1738,8150,28466
1628,11834,12079
3370,19023,30393
1639,13383,8056
3988,20264,37757
1444,6109,16915
981,6488,6592
1606,8475,16482
1999,10542,23045
2552,14464,35253
1493,7947,16411
911,5928,9715
865,5593,6518
1565,8615,17093
1631,8865,15218
2306,13189,14993
767,3527,12968
1337,10246,9557
2656,19150,13656
1179,6057,18313
535,3177,6289
2939,16939,23258
2127,8655,21871
1521,9933,15000
1685,8913,17239
1105,6420,10940
1279,7429,13588
417,1776,8219
2957,11806,35990
523,4423,3629
2153,10319,16692
1554,8909,7725
1065,5717,12587
4028,25703,40666
564,4794,4968
854,6852,6344
77,579,856
1463,7668,18978
1524,8094,13914
2100,13967,15933
773,2839,13496
1734,9642,19181
2299,12695,17577
808,4852,7442
1740,10783,24059
1388,11511,18366
2013,11933,26701
