Initialize SIGNATURE TABLE
ST_SET: 1
ST_WAY: 256
ST_TAG_BIT: 16
ST_TAG_MASK: ffff

Initialize PATTERN TABLE
PT_SET: 512
PT_WAY: 4
SIG_DELTA_BIT: 7
C_SIG_BIT: 4
C_DELTA_BIT: 4

Initialize PREFETCH FILTER
FILTER_SET: 1024

*** ChampSim Multicore Out-of-Order Simulator ***

Warmup Instructions: 50000000
Simulation Instructions: 50000000
Number of CPUs: 1
LLC sets: 2048
LLC ways: 16
Off-chip DRAM Size: 4096 MB Channels: 1 Width: 64-bit Data Rate: 3200 MT/s

CPU 0 runs /ChampSim-master-BTBX/dpc3_traces/server_024.champsimtrace.xz
Basic BTB sets: 4096 ways: 4 indirect buffer size: 4096 RAS size: 64
CPU 0 L1D next line prefetcher
Heartbeat CPU 0 instructions: 10000000 cycles: 3500490 heartbeat IPC: 2.85674 cumulative IPC: 2.85674 (Simulation time: 0 hr 0 min 18 sec) 
Heartbeat CPU 0 instructions: 20000002 cycles: 6994060 heartbeat IPC: 2.8624 cumulative IPC: 2.85957 (Simulation time: 0 hr 0 min 36 sec) 
Heartbeat CPU 0 instructions: 30000000 cycles: 10497943 heartbeat IPC: 2.85398 cumulative IPC: 2.8577 (Simulation time: 0 hr 0 min 54 sec) 
Heartbeat CPU 0 instructions: 40000000 cycles: 13999141 heartbeat IPC: 2.85617 cumulative IPC: 2.85732 (Simulation time: 0 hr 1 min 11 sec) 
Heartbeat CPU 0 instructions: 50000001 cycles: 17490013 heartbeat IPC: 2.86461 cumulative IPC: 2.85877 (Simulation time: 0 hr 1 min 29 sec) 

Warmup complete CPU 0 instructions: 50000001 cycles: 17490013 (Simulation time: 0 hr 1 min 29 sec) 

Heartbeat CPU 0 instructions: 60000003 cycles: 29753274 heartbeat IPC: 0.815444 cumulative IPC: 0.815444 (Simulation time: 0 hr 1 min 47 sec) 
Heartbeat CPU 0 instructions: 70000000 cycles: 42044650 heartbeat IPC: 0.813578 cumulative IPC: 0.81451 (Simulation time: 0 hr 2 min 4 sec) 
*** Reached end of trace for Core: 0 Repeating trace: /ChampSim-master-BTBX/dpc3_traces/server_024.champsimtrace.xz
Heartbeat CPU 0 instructions: 80000001 cycles: 54212354 heartbeat IPC: 0.821848 cumulative IPC: 0.816941 (Simulation time: 0 hr 2 min 21 sec) 
Heartbeat CPU 0 instructions: 90000003 cycles: 66534699 heartbeat IPC: 0.811534 cumulative IPC: 0.815583 (Simulation time: 0 hr 2 min 39 sec) 
Heartbeat CPU 0 instructions: 100000002 cycles: 78942400 heartbeat IPC: 0.805951 cumulative IPC: 0.813638 (Simulation time: 0 hr 2 min 56 sec) 
Finished CPU 0 instructions: 50000001 cycles: 61452387 cumulative IPC: 0.813638 (Simulation time: 0 hr 2 min 56 sec) 

ChampSim completed all CPUs

Region of Interest Statistics

CPU 0
XXX cumulative-IPC 0.813638
XXX instructions 50000001
XXX cycles 61452387
L1D TOTAL     ACCESS:   21820151  HIT:   20299828  MISS:    1520323
L1D LOAD      ACCESS:    7951285  HIT:    7281328  MISS:     669957
L1D RFO       ACCESS:    6242624  HIT:    5970365  MISS:     272259
L1D PREFETCH  ACCESS:    7626242  HIT:    7048135  MISS:     578107
L1D WRITEBACK ACCESS:          0  HIT:          0  MISS:          0
L1D PREFETCH  REQUESTED:    8010980  ISSUED:    7900547
XXX L1D-USEFUL 148547
XXX L1D-USELESS 429562
L1D AVERAGE MISS LATENCY: 26.2832 cycles
L1I TOTAL     ACCESS:   13177911  HIT:   10120345  MISS:    3057566
L1I LOAD      ACCESS:    8980507  HIT:    7325889  MISS:    1654618
L1I RFO       ACCESS:          0  HIT:          0  MISS:          0
L1I PREFETCH  ACCESS:    4197404  HIT:    2794456  MISS:    1402948
L1I WRITEBACK ACCESS:          0  HIT:          0  MISS:          0
L1I PREFETCH  REQUESTED:    6756833  ISSUED:    6756833
XXX L1I-USEFUL 893621
XXX L1I-USELESS 509332
L1I AVERAGE MISS LATENCY: 13.0968 cycles
L2C TOTAL     ACCESS:    6370410  HIT:    5319145  MISS:    1051265
L2C LOAD      ACCESS:    1323217  HIT:    1071288  MISS:     251929
L2C RFO       ACCESS:     270018  HIT:     169950  MISS:     100068
L2C PREFETCH  ACCESS:    4256657  HIT:    3561927  MISS:     694730
L2C WRITEBACK ACCESS:     520518  HIT:     515980  MISS:       4538
L2C PREFETCH  REQUESTED:    4242463  ISSUED:    4242255
XXX L2C-USEFUL 73276
XXX L2C-USELESS 619983
L2C AVERAGE MISS LATENCY: 39.0877 cycles
LLC TOTAL     ACCESS:    2111824  HIT:    2060465  MISS:      51359
LLC LOAD      ACCESS:     251480  HIT:     246079  MISS:       5401
LLC RFO       ACCESS:     100065  HIT:      77857  MISS:      22208
LLC PREFETCH  ACCESS:    1589397  HIT:    1565789  MISS:      23608
LLC WRITEBACK ACCESS:     170882  HIT:     170740  MISS:        142
LLC PREFETCH  REQUESTED:          0  ISSUED:          0
XXX LLC-USEFUL 2091
XXX LLC-USELESS 21337
LLC AVERAGE MISS LATENCY: 181.935 cycles
Major fault: 0 Minor fault: 2372
XXX disp-0 2080287
XXX disp-1 0
XXX disp-2 2038
XXX disp-3 494784
XXX disp-4 1128329
XXX disp-5 1096249
XXX disp-6 1467863
XXX disp-7 716159
XXX disp-8 732538
XXX disp-9 417907
XXX disp-10 285608
XXX disp-11 204974
XXX disp-12 113458
XXX disp-13 124720
XXX disp-14 113765
XXX disp-15 132446
XXX disp-16 57565
XXX disp-17 70830
XXX disp-18 133270
XXX disp-19 123825
XXX disp-20 133266
XXX disp-21 261692
XXX disp-22 168097
XXX disp-23 320654
XXX disp-24 112766
XXX disp-25 0
XXX disp-26 0
XXX disp-27 0
XXX disp-28 0
XXX disp-29 0
XXX disp-30 0
XXX disp-31 0
XXX disp-32 0
XXX disp-33 0
XXX disp-34 0
XXX disp-35 0
XXX disp-36 0
XXX disp-37 0
XXX disp-38 0
XXX disp-39 0
XXX disp-40 0
XXX disp-41 0
XXX disp-42 0
XXX disp-43 0
XXX disp-44 0
XXX disp-45 0
XXX disp-46 287796
XXX disp-47 0
XXX disp-48 0
XXX disp-49 0
XXX disp-50 0
XXX disp-51 0
XXX disp-52 0
XXX disp-53 0
XXX disp-54 0
XXX disp-55 0
XXX disp-56 0
XXX disp-57 0
XXX disp-58 0
XXX disp-59 0
XXX disp-60 0
XXX disp-61 0
XXX disp-62 0
XXX disp-63 2
XXX disp-64 0
XXX disp-65 0
XXX diffBits-0 2080287
XXX diffBits-1 1348
XXX diffBits-2 187496
XXX diffBits-3 704529
XXX diffBits-4 748696
XXX diffBits-5 907550
XXX diffBits-6 755197
XXX diffBits-7 1154013
XXX diffBits-8 506029
XXX diffBits-9 584726
XXX diffBits-10 520901
XXX diffBits-11 295506
XXX diffBits-12 180074
XXX diffBits-13 166717
XXX diffBits-14 53024
XXX diffBits-15 94743
XXX diffBits-16 133082
XXX diffBits-17 104343
XXX diffBits-18 78274
XXX diffBits-19 105716
XXX diffBits-20 295059
XXX diffBits-21 250468
XXX diffBits-22 370031
XXX diffBits-23 0
XXX diffBits-24 0
XXX diffBits-25 215281
XXX diffBits-26 0
XXX diffBits-27 0
XXX diffBits-28 0
XXX diffBits-29 0
XXX diffBits-30 0
XXX diffBits-31 0
XXX diffBits-32 0
XXX diffBits-33 0
XXX diffBits-34 0
XXX diffBits-35 0
XXX diffBits-36 0
XXX diffBits-37 0
XXX diffBits-38 0
XXX diffBits-39 0
XXX diffBits-40 0
XXX diffBits-41 0
XXX diffBits-42 0
XXX diffBits-43 0
XXX diffBits-44 0
XXX diffBits-45 287796
XXX diffBits-46 0
XXX diffBits-47 0
XXX diffBits-48 0
XXX diffBits-49 0
XXX diffBits-50 0
XXX diffBits-51 0
XXX diffBits-52 0
XXX diffBits-53 0
XXX diffBits-54 0
XXX diffBits-55 0
XXX diffBits-56 0
XXX diffBits-57 0
XXX diffBits-58 0
XXX diffBits-59 0
XXX diffBits-60 0
XXX diffBits-61 0
XXX diffBits-62 2
XXX diffBits-63 0
XXX diffBits-64 0
XXX diffBits-65 0
CPU 0 L1D next line prefetcher final stats

DRAM Statistics
 CHANNEL 0
 RQ ROW_BUFFER_HIT:      17353  ROW_BUFFER_MISS:      33854
 DBUS_CONGESTED:      35252
 WQ ROW_BUFFER_HIT:       2592  ROW_BUFFER_MISS:      23036  FULL:          0

 AVG_CONGESTED_CYCLE: 6

CPU 0 Branch Prediction Accuracy: 85.4055% MPKI: 26.6968 Average ROB Occupancy at Mispredict: 51.9034

XXX total_mispredicts 1334839
XXX total_target_mispredicts1 1005414
XXX total_target_mispredicts2 311406
XXX total_direction_mispredicts 18019
XXX mispredict_on_btb_hit 193730
XXX NOT_BRANCH: 0
XXX BRANCH_DIRECT_JUMP: 0
XXX BRANCH_INDIRECT: 17552
XXX BRANCH_CONDITIONAL: 0
XXX BRANCH_DIRECT_CALL: 0
XXX BRANCH_INDIRECT_CALL: 13761
XXX BRANCH_RETURN: 162417
XXX BRANCH_OTHER: 0
Branch types
NOT_BRANCH: 40853732 81.7075%
BRANCH_DIRECT_JUMP: 566822 1.13364%
BRANCH_INDIRECT: 197171 0.394342%
BRANCH_CONDITIONAL: 6308435 12.6169%
BRANCH_DIRECT_CALL: 876400 1.7528%
BRANCH_INDIRECT_CALL: 160491 0.320982%
BRANCH_RETURN: 1036885 2.07377%
BRANCH_OTHER: 0 0%

XXX BTB_reads: 16044468
XXX BTB_writes: 1123090
XXX PageBTB_reads: 0
XXX PageBTB_writes: 0
XXX PageBTB_readsBeforeWrite: 0
XXX RegionBTB_reads: 0
XXX RegionBTB_writes: 0
XXX RegionBTB_readsBeforeWrite: 0
XXX BTB_4D_Hits 773417
XXX BTB_6D_Hits 729190
XXX BTB_8D_Hits 948445
XXX BTB_12D_Hits 397926
XXX BTB_18D_Hits 203170
XXX BTB_25D_Hits 151806
XXX BTB_46D_Hits 88782
XXX BTB_Ret_Hits 970633
XXX BTB_4D_Misses 46087
XXX BTB_6D_Misses 40302
XXX BTB_8D_Misses 117819
XXX BTB_12D_Misses 120048
XXX BTB_18D_Misses 104205
XXX BTB_25D_Misses 221286
XXX BTB_46D_Misses 407091
XXX BTB_Ret_Misses 66252
XXX Num_unique_branches 10368
total instructions: 0
wc,tif,trb
3867,10158,85835
4420,27554,48090
2557,16700,23387
3172,20663,41461
1731,8299,34850
2211,19715,22891
4862,27782,64094
5933,25080,106397
6813,52043,69804
5004,38639,61563
3038,25925,27023
12137,67365,128712
24,125,327
2340,14426,33746
937,4283,17271
2261,11068,32179
1129,11749,12746
694,2774,14456
4282,17496,85353
707,5906,9591
7585,50190,82405
26,168,370
6642,41801,57160
4379,19236,69994
5011,21885,81430
6775,41201,59140
2868,20665,21196
2659,10636,55685
5157,21621,98839
547,3517,10118
6440,30222,108106
2429,19340,35803
2740,20896,26290
1672,10969,20385
5088,24119,75297
1205,8213,13962
4108,13044,85158
10475,53950,118330
3392,13569,59586
2200,4802,50078
11,61,88
1997,18872,15724
674,2741,13907
2076,10364,41455
4248,24754,58479
6246,43940,29437
1134,6109,15551
3672,12356,75432
4904,20260,71577
5225,29144,60403
13,96,126
7387,40649,78628
4570,14253,78483
8,32,48
3601,21239,36085
4289,15622,87305
3397,23386,51445
16,50,150
3173,13477,51470
8,34,46
1156,1732,27036
7843,34126,96603
6912,44517,85713
6,5,66
2941,11609,46288
9193,54843,90888
9126,38967,95174
3303,23602,48828
3505,23554,48484
4389,24065,53530
3177,15688,55309
4848,35390,54371
2618,10405,49804
4658,40320,49848
2006,9169,40557
1437,12050,17824
5398,23624,81188
6894,41032,73523
3898,18225,67461
9362,45982,115034
3092,31664,34776
734,3386,12636
6774,20793,131493
2578,20671,13476
3567,20905,57830
9,38,87
2129,6856,41842
7716,41987,90353
4577,28842,42509
2152,13726,17927
7183,48957,62743
2073,5524,42081
2505,11142,47267
2637,19251,42125
4549,22778,76119
7814,42855,84519
4702,22858,71280
4416,28299,31751
8556,48772,122587
2967,11696,36612
2988,6413,59781
6289,29178,89055
1222,1840,28590
13180,69799,122183
703,2481,14920
1722,8006,32716
11327,76363,103479
6396,36780,97262
3907,19414,71955
9157,64570,80819
3254,15283,65691
7581,44133,106725
2555,14679,42104
8653,39305,83329
302,3695,3723
1002,4835,19638
2079,6575,41159
8060,63157,63886
2311,8491,43378
7298,47337,51798
5861,35884,64079
7180,35967,96672
1406,6270,28028
7038,49390,52075
2767,13815,44861
1829,15247,24534
2450,12106,34421
2592,18269,38047
7086,35576,117419
2534,14912,33294
2111,15584,13929
8867,72058,41456
8486,55185,67394
1186,2528,26783
7,14,59
2469,16564,35155
693,4818,12419
1044,4907,10797
7544,47115,58072
1153,5376,17497
1962,8741,35038
530,4283,5367
38,202,378
2893,6485,64336
3593,20548,40894
6302,43159,71207
1392,5591,29069
1681,10284,21667
6524,40990,45187
4066,27720,43664
12482,66083,145593
9231,49248,109665
26,265,245
2680,17400,37591
16,66,166
2770,11073,49832
4278,22833,56379
498,3641,8653
3910,18984,58882
3545,26306,40747
12,71,97
1306,5846,26692
4101,21677,49968
3667,17854,64215
772,1481,16973
361,3862,4972
922,4994,17812
2080,12460,33234
7685,45766,75329
709,3254,14170
2192,16082,18950
1320,4612,28309
9295,47399,83857
21,102,321
25,110,415
1810,12784,13830
2409,7214,52922
641,4696,11015
689,4,17175
5246,24933,77163
271,1608,4569
2927,20785,46691
6,12,24
697,2435,14824
6153,39285,51478
1512,14216,14822
655,5978,8863
1831,18304,18386
3317,14939,60014
4316,23554,72789
19,30,347
6977,41111,67316
7631,35654,87289
8,14,66
1389,6952,23571
3277,24226,20663
5134,38699,39713
3710,23352,35933
4378,36731,28101
1766,11524,32382
1502,5494,30184
5552,29850,67596
23,181,144
3299,24181,32790
1753,8724,27693
2243,20346,24024
1390,2775,31827
2411,15164,21042
10,51,67
7679,58775,46760
1420,6399,28981
7,19,56
249,1684,3580
3751,26077,39194
1376,4198,30036
1241,6583,20519
7977,64917,42277
26,69,345
1221,10527,17729
297,890,6469
4064,38358,40154
8,25,55
1390,5559,29043
5722,33226,79567
1612,4479,31623
3400,25282,25343
1986,8568,36196
4487,13600,72703
1091,3344,23575
7068,34551,83745
22,73,305
337,1343,6998
5887,35993,72122
5906,36733,53581
648,4965,11075
6530,34943,77775
4904,14783,89049
4795,29666,47106
2711,17325,37472
6476,20905,136555
1961,17972,26406
235,690,3722
3197,16732,29030
788,7166,7906
7738,57112,52901
3783,27204,43554
5456,30445,49958
1065,5425,18911
3560,33701,47001
4484,13466,88438
1399,5559,29184
2397,11563,25894
1795,13808,19531
6718,31249,82959
18,42,269
2372,9512,49520
9713,46642,106541
2892,16253,39755
667,4443,7696
3959,17693,70248
2705,10815,56656
872,3484,18209
1745,10735,20640
14,54,190
2775,10407,33019
3167,15264,50831
5,14,37
5992,22452,95189
3516,25035,36853
4167,33456,23309
7,23,53
2044,7824,43144
945,9849,9775
624,2757,8987
7016,40154,85228
1679,11508,18285
2881,10248,58059
3705,23157,51360
1038,7112,7376
2917,13204,54357
4961,24994,80337
461,3270,2561
1260,3786,20298
2699,5392,61969
2169,9362,40117
8,41,39
8671,41589,92336
3987,32252,42056
8581,37346,112397
5587,40578,37424
3301,14153,56262
1380,12137,9070
500,2734,3110
3716,16169,56703
6212,31394,64090
1307,12809,4620
1427,9968,20306
1424,7798,26990
3139,18173,36840
1722,4498,36414
300,1631,5749
2856,14529,55885
3050,16974,34656
6198,41622,38054
3227,6133,74122
4773,41123,44561
941,1982,21389
1317,12501,14165
36,274,128
1200,3666,26118
3123,15125,30934
2424,21067,8421
3659,13881,65484
2701,14515,28344
4528,34829,34677
736,2987,14809
4562,18004,85870
2524,17070,17317
5274,31830,88218
3254,21932,43630
8634,62255,79532
1567,12527,16196
12658,79000,83356
10482,63998,87954
4635,12788,98811
692,2764,14446
4670,36104,53007
1171,10243,18633
1319,5278,27577
17,171,134
7517,45115,66615
6351,41899,58916
1866,7779,30843
4334,27730,55250
10707,83621,60464
4856,14457,99815
2727,19751,45930
1884,8217,38776
2535,21317,18544
7490,45719,95721
3419,10306,65183
5189,22890,88026
5086,33837,42448
3728,21334,48074
6107,28167,84457
2403,9084,45103
8101,59175,49909
5656,31708,89096
4244,19558,64286
3800,16529,77851
2221,11372,37239
6977,27031,107558
8,23,57
3464,26173,38487
6078,32986,55572
2809,9463,53766
8452,65621,58151
3468,23399,44814
4314,21545,74895
2447,19218,20119
2494,17885,26364
694,4136,13094
103,647,898
1730,5534,37610
5995,37038,89813
5392,36448,38149
2817,12369,41036
8,46,80
5273,22078,62084
3085,22687,40352
4440,21097,82841
5107,39971,53238
1487,11318,18719
3150,20638,28268
3199,23311,28828
2257,13941,22559
12,47,121
4391,29910,45927
5014,27362,68097
3785,19424,59705
8140,47470,94362
3649,20972,54214
10421,44108,137986
1696,4592,37708
5031,37747,38052
301,2639,3359
9,25,94
6391,30450,89823
5411,20847,97960
3662,13983,61761
4589,19690,84535
7215,44096,97687
2430,7144,42868
10733,65275,101559
1417,5600,29123
7552,18183,125149
5944,50170,39858
8501,55350,43964
1312,7199,25475
2163,14658,24835
2725,15903,39909
9548,43445,135609
7650,57095,74475
1816,12908,8110
2181,8696,42859
4300,21795,80097
1266,9811,14285
3819,12806,74809
12105,72843,102880
733,2668,14987
1233,9702,16355
3287,24310,34349
9702,53096,121348
7437,47860,78918
9924,61926,100542
3645,16819,43826
1851,14809,9831
818,5774,13841
1444,11182,12508
3881,13945,77877
6,9,42
3656,24777,21802
4059,24193,32958
10362,71964,83099
408,1378,8042
6893,59514,31706
2758,12969,39761
26,58,266
5538,39859,43407
7,15,61
10,19,69
3170,25087,29963
1430,9487,19899
1168,6470,12052
5181,23946,62245
1389,6932,27693
461,2729,7300
3992,18073,76977
5336,23237,38643
2833,18073,46144
4446,31302,49374
4852,32024,36830
3188,28154,30712
4224,23302,56201
12266,57173,119811
11599,47896,165959
4148,23455,63997
8481,31687,103483
291,2639,3626
4835,26633,78604
8311,56117,89054
4489,31472,61959
3171,9121,69975
5416,29284,58854
17,79,130
4055,29268,47447
3475,23043,49862
2554,16593,25899
3865,26356,48475
13455,64159,151892
8903,45204,108603
758,7829,8089
2394,16985,34051
5997,18728,110223
12960,70825,104735
17,91,144
1373,3033,31206
10623,50049,111590
11,28,136
3923,23672,25690
18,74,256
1339,5390,27966
7680,44225,78878
3015,11705,50794
2066,13026,14872
4263,26587,50574
2703,8114,59363
16546,95921,135040
6401,45165,35084
2169,9578,40553
5194,31909,81416
239,1414,4387
1326,12497,20422
15814,91784,128291
5388,19084,88292
1406,11118,23729
452,4502,3186
3437,12210,73620
5,9,30
5669,31484,63020
6355,26350,94435
139,1400,1453
690,3093,14113
7528,55138,92344
2366,8949,50149
4709,29310,67008
4668,28709,59382
15,50,225
3401,9722,75135
2033,15550,20760
1740,6599,36671
5633,40259,47448
4793,33433,59894
2728,21094,43186
31,252,211
2475,13639,43469
3854,22974,65008
20,97,235
3817,27336,54015
9430,43156,154138
7185,31999,100959
2601,25695,34258
