Initialize SIGNATURE TABLE
ST_SET: 1
ST_WAY: 256
ST_TAG_BIT: 16
ST_TAG_MASK: ffff

Initialize PATTERN TABLE
PT_SET: 512
PT_WAY: 4
SIG_DELTA_BIT: 7
C_SIG_BIT: 4
C_DELTA_BIT: 4

Initialize PREFETCH FILTER
FILTER_SET: 1024

*** ChampSim Multicore Out-of-Order Simulator ***

Warmup Instructions: 50000000
Simulation Instructions: 50000000
Number of CPUs: 1
LLC sets: 2048
LLC ways: 16
Off-chip DRAM Size: 4096 MB Channels: 1 Width: 64-bit Data Rate: 3200 MT/s

CPU 0 runs /ChampSim-master-BTBX/dpc3_traces/server_035.champsimtrace.xz
Basic BTB sets: 4096 ways: 4 indirect buffer size: 4096 RAS size: 64
CPU 0 L1D next line prefetcher
Heartbeat CPU 0 instructions: 10000001 cycles: 3342397 heartbeat IPC: 2.99187 cumulative IPC: 2.99187 (Simulation time: 0 hr 0 min 18 sec) 
Heartbeat CPU 0 instructions: 20000000 cycles: 6683529 heartbeat IPC: 2.993 cumulative IPC: 2.99243 (Simulation time: 0 hr 0 min 36 sec) 
Heartbeat CPU 0 instructions: 30000000 cycles: 10021951 heartbeat IPC: 2.99543 cumulative IPC: 2.99343 (Simulation time: 0 hr 0 min 53 sec) 
Heartbeat CPU 0 instructions: 40000000 cycles: 13365362 heartbeat IPC: 2.99096 cumulative IPC: 2.99281 (Simulation time: 0 hr 1 min 11 sec) 
Heartbeat CPU 0 instructions: 50000003 cycles: 16706193 heartbeat IPC: 2.99327 cumulative IPC: 2.9929 (Simulation time: 0 hr 1 min 29 sec) 

Warmup complete CPU 0 instructions: 50000003 cycles: 16706193 (Simulation time: 0 hr 1 min 29 sec) 

Heartbeat CPU 0 instructions: 60000002 cycles: 29030019 heartbeat IPC: 0.811436 cumulative IPC: 0.811436 (Simulation time: 0 hr 1 min 48 sec) 
Heartbeat CPU 0 instructions: 70000003 cycles: 41030813 heartbeat IPC: 0.833278 cumulative IPC: 0.822212 (Simulation time: 0 hr 2 min 6 sec) 
Heartbeat CPU 0 instructions: 80000003 cycles: 53216306 heartbeat IPC: 0.820648 cumulative IPC: 0.82169 (Simulation time: 0 hr 2 min 24 sec) 
Heartbeat CPU 0 instructions: 90000003 cycles: 64725867 heartbeat IPC: 0.868843 cumulative IPC: 0.832992 (Simulation time: 0 hr 2 min 42 sec) 
Heartbeat CPU 0 instructions: 100000002 cycles: 76899467 heartbeat IPC: 0.82145 cumulative IPC: 0.830658 (Simulation time: 0 hr 3 min 1 sec) 
Finished CPU 0 instructions: 50000003 cycles: 60193275 cumulative IPC: 0.830658 (Simulation time: 0 hr 3 min 1 sec) 

ChampSim completed all CPUs

Region of Interest Statistics

CPU 0
XXX cumulative-IPC 0.830658
XXX instructions 50000003
XXX cycles 60193275
L1D TOTAL     ACCESS:   20029802  HIT:   18523672  MISS:    1506130
L1D LOAD      ACCESS:    6972634  HIT:    6281057  MISS:     691577
L1D RFO       ACCESS:    6256700  HIT:    6102117  MISS:     154583
L1D PREFETCH  ACCESS:    6800468  HIT:    6140498  MISS:     659970
L1D WRITEBACK ACCESS:          0  HIT:          0  MISS:          0
L1D PREFETCH  REQUESTED:    7021196  ISSUED:    6941352
XXX L1D-USEFUL 146048
XXX L1D-USELESS 513927
L1D AVERAGE MISS LATENCY: 42.7843 cycles
L1I TOTAL     ACCESS:   14620512  HIT:   10524641  MISS:    4095871
L1I LOAD      ACCESS:    9491885  HIT:    7169289  MISS:    2322596
L1I RFO       ACCESS:          0  HIT:          0  MISS:          0
L1I PREFETCH  ACCESS:    5128627  HIT:    3355352  MISS:    1773275
L1I WRITEBACK ACCESS:          0  HIT:          0  MISS:          0
L1I PREFETCH  REQUESTED:    8647518  ISSUED:    8647518
XXX L1I-USEFUL 1072618
XXX L1I-USELESS 700655
L1I AVERAGE MISS LATENCY: 12.6896 cycles
L2C TOTAL     ACCESS:    8231369  HIT:    7889089  MISS:     342280
L2C LOAD      ACCESS:    2420832  HIT:    2271627  MISS:     149205
L2C RFO       ACCESS:     153129  HIT:     131559  MISS:      21570
L2C PREFETCH  ACCESS:    5292306  HIT:    5122513  MISS:     169793
L2C WRITEBACK ACCESS:     365102  HIT:     363390  MISS:       1712
L2C PREFETCH  REQUESTED:    6586595  ISSUED:    6581894
XXX L2C-USEFUL 16842
XXX L2C-USELESS 152312
L2C AVERAGE MISS LATENCY: 137.917 cycles
LLC TOTAL     ACCESS:    1991099  HIT:    1696828  MISS:     294271
LLC LOAD      ACCESS:     148483  HIT:      66044  MISS:      82439
LLC RFO       ACCESS:      21559  HIT:      11018  MISS:      10541
LLC PREFETCH  ACCESS:    1717899  HIT:    1517674  MISS:     200225
LLC WRITEBACK ACCESS:     103158  HIT:     102092  MISS:       1066
LLC PREFETCH  REQUESTED:          0  ISSUED:          0
XXX LLC-USEFUL 36176
XXX LLC-USELESS 163005
LLC AVERAGE MISS LATENCY: 207.134 cycles
Major fault: 0 Minor fault: 5548
XXX disp-0 2547661
XXX disp-1 0
XXX disp-2 2784
XXX disp-3 311952
XXX disp-4 1203786
XXX disp-5 1164977
XXX disp-6 1136636
XXX disp-7 894442
XXX disp-8 738048
XXX disp-9 569681
XXX disp-10 356718
XXX disp-11 285637
XXX disp-12 154012
XXX disp-13 182912
XXX disp-14 178086
XXX disp-15 89269
XXX disp-16 136853
XXX disp-17 252541
XXX disp-18 270415
XXX disp-19 58886
XXX disp-20 361194
XXX disp-21 94656
XXX disp-22 5587
XXX disp-23 195166
XXX disp-24 0
XXX disp-25 0
XXX disp-26 0
XXX disp-27 0
XXX disp-28 0
XXX disp-29 0
XXX disp-30 0
XXX disp-31 0
XXX disp-32 0
XXX disp-33 0
XXX disp-34 0
XXX disp-35 0
XXX disp-36 0
XXX disp-37 0
XXX disp-38 0
XXX disp-39 0
XXX disp-40 0
XXX disp-41 0
XXX disp-42 0
XXX disp-43 0
XXX disp-44 0
XXX disp-45 0
XXX disp-46 111497
XXX disp-47 0
XXX disp-48 0
XXX disp-49 0
XXX disp-50 0
XXX disp-51 0
XXX disp-52 0
XXX disp-53 0
XXX disp-54 0
XXX disp-55 0
XXX disp-56 0
XXX disp-57 0
XXX disp-58 0
XXX disp-59 0
XXX disp-60 0
XXX disp-61 0
XXX disp-62 0
XXX disp-63 1
XXX disp-64 0
XXX disp-65 0
XXX diffBits-0 2547661
XXX diffBits-1 0
XXX diffBits-2 146693
XXX diffBits-3 444191
XXX diffBits-4 882060
XXX diffBits-5 1074892
XXX diffBits-6 887802
XXX diffBits-7 700700
XXX diffBits-8 813495
XXX diffBits-9 774939
XXX diffBits-10 412676
XXX diffBits-11 314544
XXX diffBits-12 266606
XXX diffBits-13 223132
XXX diffBits-14 116993
XXX diffBits-15 68355
XXX diffBits-16 254075
XXX diffBits-17 76932
XXX diffBits-18 142075
XXX diffBits-19 526751
XXX diffBits-20 216322
XXX diffBits-21 105833
XXX diffBits-22 195172
XXX diffBits-23 0
XXX diffBits-24 0
XXX diffBits-25 0
XXX diffBits-26 0
XXX diffBits-27 0
XXX diffBits-28 0
XXX diffBits-29 0
XXX diffBits-30 0
XXX diffBits-31 0
XXX diffBits-32 0
XXX diffBits-33 0
XXX diffBits-34 0
XXX diffBits-35 0
XXX diffBits-36 0
XXX diffBits-37 0
XXX diffBits-38 0
XXX diffBits-39 0
XXX diffBits-40 0
XXX diffBits-41 0
XXX diffBits-42 0
XXX diffBits-43 0
XXX diffBits-44 0
XXX diffBits-45 111497
XXX diffBits-46 0
XXX diffBits-47 0
XXX diffBits-48 0
XXX diffBits-49 0
XXX diffBits-50 0
XXX diffBits-51 0
XXX diffBits-52 0
XXX diffBits-53 0
XXX diffBits-54 0
XXX diffBits-55 0
XXX diffBits-56 0
XXX diffBits-57 0
XXX diffBits-58 0
XXX diffBits-59 0
XXX diffBits-60 0
XXX diffBits-61 0
XXX diffBits-62 1
XXX diffBits-63 0
XXX diffBits-64 0
XXX diffBits-65 0
CPU 0 L1D next line prefetcher final stats

DRAM Statistics
 CHANNEL 0
 RQ ROW_BUFFER_HIT:      72941  ROW_BUFFER_MISS:     220256
 DBUS_CONGESTED:     170672
 WQ ROW_BUFFER_HIT:      18010  ROW_BUFFER_MISS:      73531  FULL:          0

 AVG_CONGESTED_CYCLE: 5

CPU 0 Branch Prediction Accuracy: 93.1201% MPKI: 13.3917 Average ROB Occupancy at Mispredict: 71.9966

XXX total_mispredicts 669585
XXX total_target_mispredicts1 565647
XXX total_target_mispredicts2 98670
XXX total_direction_mispredicts 5268
XXX mispredict_on_btb_hit 329655
XXX NOT_BRANCH: 0
XXX BRANCH_DIRECT_JUMP: 2
XXX BRANCH_INDIRECT: 29088
XXX BRANCH_CONDITIONAL: 0
XXX BRANCH_DIRECT_CALL: 0
XXX BRANCH_INDIRECT_CALL: 51652
XXX BRANCH_RETURN: 248913
XXX BRANCH_OTHER: 0
Branch types
NOT_BRANCH: 40267204 80.5344%
BRANCH_DIRECT_JUMP: 771899 1.5438%
BRANCH_INDIRECT: 108179 0.216358%
BRANCH_CONDITIONAL: 6307160 12.6143%
BRANCH_DIRECT_CALL: 1060892 2.12178%
BRANCH_INDIRECT_CALL: 211719 0.423438%
BRANCH_RETURN: 1272633 2.54527%
BRANCH_OTHER: 0 0%

XXX BTB_reads: 8054784
XXX BTB_writes: 334662
XXX PageBTB_reads: 0
XXX PageBTB_writes: 0
XXX PageBTB_readsBeforeWrite: 0
XXX RegionBTB_reads: 0
XXX RegionBTB_writes: 0
XXX RegionBTB_readsBeforeWrite: 0
XXX BTB_4D_Hits 734873
XXX BTB_6D_Hits 959392
XXX BTB_8D_Hits 1076404
XXX BTB_12D_Hits 532075
XXX BTB_18D_Hits 590064
XXX BTB_25D_Hits 118120
XXX BTB_46D_Hits 37042
XXX BTB_Ret_Hits 1266729
XXX BTB_4D_Misses 3056
XXX BTB_6D_Misses 8985
XXX BTB_8D_Misses 26296
XXX BTB_12D_Misses 54802
XXX BTB_18D_Misses 35120
XXX BTB_25D_Misses 140935
XXX BTB_46D_Misses 59564
XXX BTB_Ret_Misses 5904
XXX Num_unique_branches 6238
total instructions: 0
wc,tif,trb
7,21,59
7,26,45
2,0,4
6,10,40
7,32,39
7,22,49
7,10,59
13,36,91
6,12,34
7,23,64
8,34,81
9884,96277,84283
15,120,117
13,70,100
8,15,100
7,17,63
5,13,46
8332,64356,117880
41,298,390
8,24,56
3,4,16
75,375,1216
13,68,178
5,12,15
4,13,39
5,17,29
4,3,17
3,5,22
7,37,43
6,12,59
18,208,142
3,4,12
56,275,873
26,141,430
22,111,289
17,226,49
2,0,4
8206,43747,136736
4,7,9
4,13,38
7,17,56
16,148,84
29,220,354
6,14,53
17,156,129
5,4,46
21,229,118
21,67,426
6,12,24
22,58,204
6,19,52
9,45,79
8,26,54
5,13,12
5,9,37
1,0,11
4,5,11
30,157,329
20,213,208
5,22,31
6,22,28
4,6,40
12,40,206
8,39,75
10,65,65
8,28,52
15,57,170
7,18,58
4,4,17
8,44,47
4,2,16
10,17,104
5,6,36
4,6,14
16,52,180
242,1793,4163
20,124,273
8,35,65
14767,92503,169581
7,23,38
17,85,188
12203,78318,177310
3092,29848,38105
8,41,39
14,43,125
12,76,83
20,73,247
13659,104632,131443
9,41,58
11,58,106
13,55,106
9,25,90
10,73,31
3690,40585,26736
28,122,480
3,0,16
9,40,51
5,13,53
7,35,20
5570,25046,80753
7,35,20
12,54,126
5,3,28
8,22,58
9,63,62
8,31,95
6,14,37
39,324,359
4,6,28
12,24,161
5,5,57
8,24,56
21,156,153
18,68,202
11,48,99
32,229,263
6,26,34
7,46,54
3,1,14
3369,5334,32024
31,172,370
9,38,89
58,395,423
12,75,145
8,24,56
5,10,48
7,33,40
24,147,173
8,25,55
2,1,8
5,6,34
6,15,46
7,31,24
4,2,23
8,25,55
7,31,24
10,41,110
7,20,35
6,5,39
8,29,51
15,78,177
6,8,49
16,211,69
7,23,32
18,89,207
6,1,54
3,2,18
10,33,103
12,77,73
5584,19534,119868
369,3288,4749
4,8,31
8,33,47
71,558,837
11,48,108
42,231,661
20,154,160
6,14,57
30,137,505
4,8,38
7,18,37
6,8,58
7,22,33
7,29,44
7,7,68
35,158,597
5580,19515,119898
4,9,36
5,17,38
7,15,54
6,17,27
8357,50119,133636
4158,26323,65129
36,368,240
6,4,47
9,37,54
6,19,31
5,7,37
20,124,256
22,156,274
35,237,331
7,19,61
8,26,108
64,222,788
8324,94406,91068
15,79,94
35,137,388
561,4705,9190
374,1908,6773
67,505,592
23,155,166
8,33,47
5,7,57
11,71,78
10,21,124
8,25,60
6,16,44
6,9,39
13,65,122
6,18,32
6,9,46
7,9,62
8395,105786,78324
6,14,36
19,111,208
12132,128288,65158
14,85,99
11,72,77
27,126,243
17,89,162
8,20,68
59,430,751
10,40,84
14,116,94
371,2811,5091
22,102,256
7,18,105
22246,144442,200047
31,152,293
13929,77896,186636
11,111,73
36,154,488
8249,52389,85170
90,654,869
25,117,361
26,178,269
8358,50122,133658
4,0,20
8,16,64
5,10,59
8353,112968,69773
14,85,175
6,22,54
8,38,42
368,2371,6748
16708,64213,152990
18,109,222
19,225,80
3,1,15
7,23,46
6,14,36
11,78,104
6,22,53
5637,52823,87123
21,138,115
7,10,51
5,20,48
5,18,42
12368,81709,147363
7,24,76
10,68,100
8,37,43
5,23,41
227,1850,3023
8,48,67
36,142,722
16,69,55
5,15,38
5,12,65
7,16,39
7,17,63
8,32,48
5,14,55
9,31,58
24,167,219
6,9,42
6,15,35
5,4,27
15,101,170
7,16,39
25,165,211
8098,90780,87206
5,6,37
7,26,29
6,6,50
374,3091,4991
6,12,39
45,244,599
10,33,99
29,212,333
6,7,29
8,38,77
8,9,71
6,13,63
5,5,55
13,31,160
31,172,503
32,232,356
16742,103540,164414
25,150,277
15,108,147
15,39,217
69,407,685
5,7,32
26,96,493
7444,39055,124598
6,20,24
23,173,282
6,15,45
5,8,41
6,2,49
4,7,36
5,10,36
19298,151971,124515
5,13,30
24,132,178
11135,52908,192005
8,34,46
34,113,285
16,113,150
6,13,42
7,23,53
7,13,42
4,1,19
4,5,59
5,16,21
7,24,65
7,33,76
10,56,70
6,27,39
6,10,40
11,33,110
6,12,24
8,34,46
17,145,156
8,41,39
9,48,51
4,2,19
1866,10239,36279
7,29,78
11,70,110
15335,86042,162525
4,7,53
5,2,34
16814,138265,131323
22,75,307
8,36,44
18,50,288
23,106,166
21,155,190
8,21,59
16,117,100
8,29,51
6,6,38
27,234,235
6,16,28
3,1,21
53,260,637
7,19,50
19,113,159
14,113,79
9,58,53
225,1992,3211
5,16,21
18,112,174
3,2,35
11083,44397,199466
19,186,125
7,23,57
21,108,273
13,115,90
53,348,390
617,4815,8269
18,150,170
15,96,147
6,17,51
5706,36732,61009
4,8,41
36,267,413
3,6,24
74,555,977
7,10,65
8,32,48
26,136,348
3,3,45
21,164,168
29,124,341
70,370,874
6,15,54
10750,102948,94080
3,13,26
8361,72225,111676
5,33,38
15,87,221
10,35,95
8,25,55
12,63,105
4,9,30
14,74,190
8,30,50
5,3,45
7,16,45
7,15,40
12,34,90
6,16,52
14,53,149
23,192,127
44,389,237
24,230,117
7,13,63
18,111,219
17,98,239
17,109,162
17,72,214
20,270,110
11,71,64
4,13,60
6,9,27
6,12,44
5,18,50
10,36,82
7,27,46
7,24,31
8,34,91
14,46,199
10,50,93
7,28,45
14,58,217
3,1,34
5,3,33
5,11,14
29,344,320
21,100,319
4,5,34
7,23,50
60,311,961
7,7,73
20,112,268
2774,15223,54004
6,20,55
24,192,246
8,23,57
41,310,309
8,38,42
14,31,123
7,9,62
15,173,107
9,31,68
8,27,53
4,10,45
33,198,488
35,135,400
43,235,509
5,8,23
8099,85354,92067
7,43,53
14,91,180
72,353,1018
7,17,54
8,42,38
8,51,29
8,26,54
7,21,34
2,7,12
3272,37014,15105
11,65,140
1864,9307,26052
7,14,41
8,27,53
4075,29844,59753
19,116,226
18,99,203
16,53,279
343,2713,3696
5,6,44
8,32,48
2731,28654,30509
6,7,43
5,19,47
7,21,55
18,239,91
10,64,60
5,7,39
15,85,203
15,66,169
5613,25529,114340
2191,12346,42061
1422,8552,26664
30,117,323
29,134,234
3,5,11
49,347,496
23,99,308
23,293,72
43,232,601
42,174,294
5573,19502,86370
7,25,44
11,71,46
42,309,403
35,218,273
36,289,263
4194,33489,58519
23,154,167
6,14,76
16,86,234
8,28,52
59,614,594
91,842,1023
7,10,65
6,13,51
28,225,173
14,96,184
51,235,678
13,87,140
8334,24963,158165
8,37,77
34,206,421
8637,49176,140739
8348,88789,94605
32,216,348
13889,90375,169460
