Initialize SIGNATURE TABLE
ST_SET: 1
ST_WAY: 256
ST_TAG_BIT: 16
ST_TAG_MASK: ffff

Initialize PATTERN TABLE
PT_SET: 512
PT_WAY: 4
SIG_DELTA_BIT: 7
C_SIG_BIT: 4
C_DELTA_BIT: 4

Initialize PREFETCH FILTER
FILTER_SET: 1024

*** ChampSim Multicore Out-of-Order Simulator ***

Warmup Instructions: 50000000
Simulation Instructions: 50000000
Number of CPUs: 1
LLC sets: 2048
LLC ways: 16
Off-chip DRAM Size: 4096 MB Channels: 1 Width: 64-bit Data Rate: 3200 MT/s

CPU 0 runs /ChampSim-master-BTBX/dpc3_traces/server_017.champsimtrace.xz
Basic BTB sets: 4096 ways: 4 indirect buffer size: 4096 RAS size: 64
CPU 0 L1D next line prefetcher
Heartbeat CPU 0 instructions: 10000001 cycles: 3624566 heartbeat IPC: 2.75895 cumulative IPC: 2.75895 (Simulation time: 0 hr 0 min 19 sec) 
Heartbeat CPU 0 instructions: 20000000 cycles: 7246968 heartbeat IPC: 2.7606 cumulative IPC: 2.75977 (Simulation time: 0 hr 0 min 37 sec) 
Heartbeat CPU 0 instructions: 30000002 cycles: 10875961 heartbeat IPC: 2.75559 cumulative IPC: 2.75838 (Simulation time: 0 hr 0 min 55 sec) 
Heartbeat CPU 0 instructions: 40000000 cycles: 14500004 heartbeat IPC: 2.75935 cumulative IPC: 2.75862 (Simulation time: 0 hr 1 min 13 sec) 
Heartbeat CPU 0 instructions: 50000001 cycles: 18135060 heartbeat IPC: 2.75099 cumulative IPC: 2.75709 (Simulation time: 0 hr 1 min 32 sec) 

Warmup complete CPU 0 instructions: 50000001 cycles: 18135060 (Simulation time: 0 hr 1 min 32 sec) 

Heartbeat CPU 0 instructions: 60000002 cycles: 37951710 heartbeat IPC: 0.504626 cumulative IPC: 0.504626 (Simulation time: 0 hr 1 min 55 sec) 
Heartbeat CPU 0 instructions: 70000000 cycles: 57868102 heartbeat IPC: 0.502099 cumulative IPC: 0.503359 (Simulation time: 0 hr 2 min 18 sec) 
Heartbeat CPU 0 instructions: 80000000 cycles: 77529175 heartbeat IPC: 0.508619 cumulative IPC: 0.505101 (Simulation time: 0 hr 2 min 41 sec) 
Heartbeat CPU 0 instructions: 90000002 cycles: 102917626 heartbeat IPC: 0.39388 cumulative IPC: 0.471795 (Simulation time: 0 hr 3 min 4 sec) 
Heartbeat CPU 0 instructions: 100000003 cycles: 125249471 heartbeat IPC: 0.447791 cumulative IPC: 0.466791 (Simulation time: 0 hr 3 min 27 sec) 
Finished CPU 0 instructions: 50000002 cycles: 107114411 cumulative IPC: 0.466791 (Simulation time: 0 hr 3 min 27 sec) 

ChampSim completed all CPUs

Region of Interest Statistics

CPU 0
XXX cumulative-IPC 0.466791
XXX instructions 50000002
XXX cycles 107114411
L1D TOTAL     ACCESS:   19226354  HIT:   17059720  MISS:    2166634
L1D LOAD      ACCESS:    7389027  HIT:    6666442  MISS:     722585
L1D RFO       ACCESS:    5562015  HIT:    4702168  MISS:     859847
L1D PREFETCH  ACCESS:    6275312  HIT:    5691110  MISS:     584202
L1D WRITEBACK ACCESS:          0  HIT:          0  MISS:          0
L1D PREFETCH  REQUESTED:    7430572  ISSUED:    7274418
XXX L1D-USEFUL 220909
XXX L1D-USELESS 363354
L1D AVERAGE MISS LATENCY: 166.756 cycles
L1I TOTAL     ACCESS:   13835587  HIT:   11083016  MISS:    2752571
L1I LOAD      ACCESS:   10165388  HIT:    8498807  MISS:    1666581
L1I RFO       ACCESS:          0  HIT:          0  MISS:          0
L1I PREFETCH  ACCESS:    3670199  HIT:    2584209  MISS:    1085990
L1I WRITEBACK ACCESS:          0  HIT:          0  MISS:          0
L1I PREFETCH  REQUESTED:    6185925  ISSUED:    6185925
XXX L1I-USEFUL 645777
XXX L1I-USELESS 440227
L1I AVERAGE MISS LATENCY: 15.9118 cycles
L2C TOTAL     ACCESS:    7663669  HIT:    5788707  MISS:    1874962
L2C LOAD      ACCESS:    2008400  HIT:    1619635  MISS:     388765
L2C RFO       ACCESS:     859435  HIT:      17326  MISS:     842109
L2C PREFETCH  ACCESS:    3672594  HIT:    3031027  MISS:     641567
L2C WRITEBACK ACCESS:    1123240  HIT:    1120719  MISS:       2521
L2C PREFETCH  REQUESTED:    4685009  ISSUED:    4680823
XXX L2C-USEFUL 37592
XXX L2C-USELESS 604270
L2C AVERAGE MISS LATENCY: 193.738 cycles
LLC TOTAL     ACCESS:    4008246  HIT:    2484642  MISS:    1523604
LLC LOAD      ACCESS:     388609  HIT:     223437  MISS:     165172
LLC RFO       ACCESS:     842058  HIT:     124016  MISS:     718042
LLC PREFETCH  ACCESS:    1714474  HIT:    1076147  MISS:     638327
LLC WRITEBACK ACCESS:    1063105  HIT:    1061042  MISS:       2063
LLC PREFETCH  REQUESTED:          0  ISSUED:          0
XXX LLC-USEFUL 52678
XXX LLC-USELESS 584486
LLC AVERAGE MISS LATENCY: 251.283 cycles
Major fault: 0 Minor fault: 24696
XXX disp-0 1786638
XXX disp-1 0
XXX disp-2 0
XXX disp-3 765430
XXX disp-4 1137152
XXX disp-5 1072239
XXX disp-6 1410908
XXX disp-7 614992
XXX disp-8 570437
XXX disp-9 363983
XXX disp-10 232690
XXX disp-11 207374
XXX disp-12 261125
XXX disp-13 120072
XXX disp-14 122100
XXX disp-15 132513
XXX disp-16 191102
XXX disp-17 67211
XXX disp-18 198603
XXX disp-19 157090
XXX disp-20 94811
XXX disp-21 30340
XXX disp-22 9041
XXX disp-23 186372
XXX disp-24 0
XXX disp-25 0
XXX disp-26 0
XXX disp-27 0
XXX disp-28 0
XXX disp-29 0
XXX disp-30 0
XXX disp-31 0
XXX disp-32 0
XXX disp-33 0
XXX disp-34 0
XXX disp-35 0
XXX disp-36 0
XXX disp-37 0
XXX disp-38 0
XXX disp-39 0
XXX disp-40 0
XXX disp-41 0
XXX disp-42 0
XXX disp-43 0
XXX disp-44 0
XXX disp-45 0
XXX disp-46 95812
XXX disp-47 0
XXX disp-48 0
XXX disp-49 0
XXX disp-50 0
XXX disp-51 0
XXX disp-52 0
XXX disp-53 0
XXX disp-54 0
XXX disp-55 0
XXX disp-56 0
XXX disp-57 0
XXX disp-58 0
XXX disp-59 0
XXX disp-60 0
XXX disp-61 0
XXX disp-62 0
XXX disp-63 1
XXX disp-64 0
XXX disp-65 0
XXX diffBits-0 1786638
XXX diffBits-1 0
XXX diffBits-2 647067
XXX diffBits-3 731260
XXX diffBits-4 449646
XXX diffBits-5 1014705
XXX diffBits-6 769860
XXX diffBits-7 549164
XXX diffBits-8 530246
XXX diffBits-9 989103
XXX diffBits-10 283849
XXX diffBits-11 331719
XXX diffBits-12 100716
XXX diffBits-13 274836
XXX diffBits-14 101226
XXX diffBits-15 133506
XXX diffBits-16 302292
XXX diffBits-17 33068
XXX diffBits-18 109300
XXX diffBits-19 284244
XXX diffBits-20 93933
XXX diffBits-21 29324
XXX diffBits-22 186521
XXX diffBits-23 0
XXX diffBits-24 0
XXX diffBits-25 0
XXX diffBits-26 0
XXX diffBits-27 0
XXX diffBits-28 0
XXX diffBits-29 0
XXX diffBits-30 0
XXX diffBits-31 0
XXX diffBits-32 0
XXX diffBits-33 0
XXX diffBits-34 0
XXX diffBits-35 0
XXX diffBits-36 0
XXX diffBits-37 0
XXX diffBits-38 0
XXX diffBits-39 0
XXX diffBits-40 0
XXX diffBits-41 0
XXX diffBits-42 0
XXX diffBits-43 0
XXX diffBits-44 0
XXX diffBits-45 95812
XXX diffBits-46 0
XXX diffBits-47 0
XXX diffBits-48 0
XXX diffBits-49 0
XXX diffBits-50 0
XXX diffBits-51 0
XXX diffBits-52 0
XXX diffBits-53 0
XXX diffBits-54 0
XXX diffBits-55 0
XXX diffBits-56 0
XXX diffBits-57 0
XXX diffBits-58 0
XXX diffBits-59 0
XXX diffBits-60 0
XXX diffBits-61 0
XXX diffBits-62 1
XXX diffBits-63 0
XXX diffBits-64 0
XXX diffBits-65 0
CPU 0 L1D next line prefetcher final stats

DRAM Statistics
 CHANNEL 0
 RQ ROW_BUFFER_HIT:     391288  ROW_BUFFER_MISS:    1130128
 DBUS_CONGESTED:    1374504
 WQ ROW_BUFFER_HIT:     231915  ROW_BUFFER_MISS:     646551  FULL:          0

 AVG_CONGESTED_CYCLE: 6

CPU 0 Branch Prediction Accuracy: 97.6375% MPKI: 3.9744 Average ROB Occupancy at Mispredict: 105.184

XXX total_mispredicts 198720
XXX total_target_mispredicts1 138306
XXX total_target_mispredicts2 1476
XXX total_direction_mispredicts 58938
XXX mispredict_on_btb_hit 123644
XXX NOT_BRANCH: 0
XXX BRANCH_DIRECT_JUMP: 0
XXX BRANCH_INDIRECT: 0
XXX BRANCH_CONDITIONAL: 0
XXX BRANCH_DIRECT_CALL: 0
XXX BRANCH_INDIRECT_CALL: 25814
XXX BRANCH_RETURN: 97830
XXX BRANCH_OTHER: 0
Branch types
NOT_BRANCH: 41588346 83.1767%
BRANCH_DIRECT_JUMP: 464501 0.929002%
BRANCH_INDIRECT: 45704 0.091408%
BRANCH_CONDITIONAL: 6147408 12.2948%
BRANCH_DIRECT_CALL: 675450 1.3509%
BRANCH_INDIRECT_CALL: 201532 0.403064%
BRANCH_RETURN: 876985 1.75397%
BRANCH_OTHER: 0 0%

XXX BTB_reads: 2392896
XXX BTB_writes: 16136
XXX PageBTB_reads: 0
XXX PageBTB_writes: 0
XXX PageBTB_readsBeforeWrite: 0
XXX RegionBTB_reads: 0
XXX RegionBTB_writes: 0
XXX RegionBTB_readsBeforeWrite: 0
XXX BTB_4D_Hits 975421
XXX BTB_6D_Hits 875428
XXX BTB_8D_Hits 984201
XXX BTB_12D_Hits 521834
XXX BTB_18D_Hits 501447
XXX BTB_25D_Hits 101960
XXX BTB_46D_Hits 36153
XXX BTB_Ret_Hits 876759
XXX BTB_4D_Misses 145
XXX BTB_6D_Misses 145
XXX BTB_8D_Misses 415
XXX BTB_12D_Misses 749
XXX BTB_18D_Misses 632
XXX BTB_25D_Misses 2908
XXX BTB_46D_Misses 10916
XXX BTB_Ret_Misses 226
XXX Num_unique_branches 5303
total instructions: 0
wc,tif,trb
5,11,51
9,35,80
8,34,65
8,17,63
4,8,27
7,12,43
8,31,49
3,5,24
13,63,100
6,21,84
40,269,453
12,51,209
18,88,230
12,86,110
8,15,65
6,21,48
19,74,113
6,23,13
5,13,22
7,24,47
7,28,52
5,4,23
7,15,62
6,7,29
10,36,94
6,14,30
13,90,109
5,7,39
7,36,49
14,51,147
30,235,423
5,10,26
7,6,49
8,31,77
5,14,39
13,56,109
6,25,60
4,9,26
6,13,38
8,19,61
9,53,53
646,4618,9580
5,9,22
7,24,45
6,15,41
7,11,44
6,12,80
23,172,109
238,1674,4130
357,3218,4476
4,7,23
132,755,980
7,23,32
5,16,40
5,4,28
6,10,45
187,733,3872
7,11,69
6,13,33
4,5,15
7,23,32
5,17,29
7,17,56
2,0,7
6,21,15
6,3,45
4,8,33
4,2,18
6,21,15
5,11,56
6,16,52
6,14,46
6,12,54
6,10,26
4,7,51
8,38,42
10,24,129
5,8,33
4,5,27
10,46,128
4,7,27
3,5,30
7,13,62
7,37,38
443,3658,5997
5,23,41
16,107,149
7,20,55
7,14,47
20,157,177
3,3,13
6,12,44
9,44,69
3,16,35
7,15,40
9,46,81
5,13,43
4,2,28
3,5,23
8,21,100
10,46,98
7,22,54
8,41,39
7,11,44
8,35,51
7,21,54
7,33,42
6,10,41
3,7,24
5,6,25
8,26,89
6,24,27
5,11,41
65,373,926
4,5,34
43,191,783
4,6,40
5,14,34
7,16,59
8,27,53
6,20,40
4,5,22
5,13,30
9,43,88
8,19,74
13,102,113
11,35,116
28,191,338
24,152,328
8,41,59
7,35,40
5,2,25
163,1133,1057
4,3,21
4,4,26
8,27,53
6,22,22
5,10,38
4,6,18
5,11,20
12,52,114
13,106,87
12,39,175
10,51,73
4,11,24
5,8,54
6,8,42
9,46,65
46,281,527
58,705,410
4,5,13
8,31,49
6,33,46
9,43,116
3,1,20
4,6,46
12,81,71
7,34,51
54,206,855
9,65,61
12,69,91
6,8,56
7,33,42
9,23,100
5,13,22
5,7,18
6,26,79
28,139,466
4,4,35
6,12,32
8,42,53
5,11,16
10,88,63
10,54,56
4,7,49
8,20,80
6,8,71
16,117,107
4,10,24
5,11,28
7,37,38
5,4,32
3,7,20
9,16,81
9,38,67
10,31,67
5,12,44
4,7,41
7,12,49
8,28,101
3,6,45
5,11,14
14,66,124
9,22,83
6,19,36
5,9,39
10,55,92
6,9,27
5,14,11
5,7,42
6,15,29
26,148,349
12,67,77
4,13,40
7,12,79
5,10,47
7,26,43
6,15,36
8,23,57
10,48,66
3,3,23
9,51,54
6,36,65
5,11,30
4,3,32
11,62,106
6,11,25
9,34,77
8,22,58
10,39,52
6,34,37
4,12,27
3,1,15
8,36,85
4,13,49
6,18,58
4,5,32
5,9,34
6,14,36
7,23,32
11,46,136
5,9,26
8,33,47
54,261,969
12,93,61
10,27,79
4,4,52
26,153,212
5,12,39
6,15,47
9,53,76
4,6,39
8,26,66
9,33,97
10,48,60
14,75,109
2,4,0
7,13,62
6,26,42
5,12,34
7,20,53
5,4,39
14,99,91
6,5,43
6,25,71
6,14,54
30,259,240
5,7,43
4,5,34
7,13,48
3,13,31
6,16,92
6,6,62
2,4,0
8,41,39
4,10,26
6,8,54
17,59,168
7,25,87
8,22,58
6,19,41
6,23,32
11,64,151
10,24,104
11,58,81
6,10,38
32,114,475
320,2178,3184
10,34,121
3,13,26
5,27,37
6,22,49
10,58,97
5,13,51
4,6,37
5,10,15
15,83,160
4,9,21
7,26,49
4,11,28
9,25,80
7,22,33
6,15,21
9,47,79
7,18,51
7,28,47
6,38,70
8,66,55
9,41,118
6,20,35
7,32,44
9,7,78
5,19,52
9,72,68
6,21,39
374,2252,5014
5,3,32
9,36,123
6,10,38
4,4,23
13,51,157
7,12,43
8,47,52
5,31,40
8,24,77
15,69,126
6,13,52
3,16,39
4,8,58
5,16,55
3,8,20
7,17,52
9,28,91
6,32,36
6,15,50
3,2,14
7,13,48
8,28,52
9,53,86
5,10,47
5,12,57
10,78,67
3,11,33
5,10,41
214,1447,3590
9,35,78
6,17,47
3,9,39
8,37,43
80,366,1346
5,20,26
84,405,1289
19,79,164
6,25,51
4,6,14
5,11,20
8,29,71
9,38,81
6,18,64
8,39,41
9,43,94
7,32,64
5,18,37
1,0,19
9,47,44
7,13,56
14,90,65
17,91,99
5,10,15
10,53,77
3,13,38
5,1,34
9,55,70
2,1,23
8,31,77
8,34,46
8,53,27
7,15,61
7,16,39
143,1502,1428
7,24,52
7,20,35
6,15,33
9,36,83
8,48,32
10,54,96
1,0,5
5,5,46
5,8,35
6,15,45
109,526,857
3,24,31
5,3,43
1,1,8
11,41,139
6,8,28
8,20,90
32,185,466
0,0,0
7,20,49
3,10,49
5,4,39
4,4,28
8,31,49
5,7,33
8,25,101
8,18,101
6,21,39
5,12,57
4,2,37
9,37,68
8,21,65
13,48,189
8,30,50
9,24,89
250,502,2921
10,65,91
3,7,44
9,60,63
8,32,72
7,22,49
7,17,38
12,63,105
11,42,151
18,142,189
5,9,36
5,6,19
10,18,80
12,44,102
4,5,34
4,7,45
5,17,48
7,9,67
26,132,195
2,0,5
2,6,17
6,6,51
2,6,13
7,24,77
7,13,56
7,14,47
5,17,34
6,14,57
56,218,1092
5,4,37
10,23,95
6,15,60
10,30,142
10,50,64
5,7,24
436,3173,5934
13,65,92
6,51,73
7,29,100
13,50,151
3,1,23
8,24,56
5,5,46
5,3,32
8,47,33
125,683,2250
3,6,26
77,424,1033
9,42,83
6,18,26
9,49,76
9,60,78
6,14,62
278,2166,4630
323,4313,2434
7,15,95
5,14,51
5,12,39
10,62,73
6,9,55
5,14,22
3,3,13
9,45,68
6,22,54
8,36,79
17,73,180
7,14,57
8,32,87
499,4547,5798
7,46,50
11,40,99
13,99,114
10,73,57
8,30,50
21,89,196
5,8,33
4,3,36
7,10,45
329,3041,3808
5,8,17
6,19,17
15,91,100
5,6,46
8,31,49
601,3276,9847
16,113,169
10,31,83
5,10,32
25,175,242
10,28,127
4,12,37
10,53,77
6,9,47
8,12,102
12,66,84
4,6,22
265,927,5485
21,112,133
4,16,35
10,44,107
4,15,45
261,2221,3176
4,2,32
8,40,89
6,37,81
5,14,48
6,17,54
