Initialize SIGNATURE TABLE
ST_SET: 1
ST_WAY: 256
ST_TAG_BIT: 16
ST_TAG_MASK: ffff

Initialize PATTERN TABLE
PT_SET: 512
PT_WAY: 4
SIG_DELTA_BIT: 7
C_SIG_BIT: 4
C_DELTA_BIT: 4

Initialize PREFETCH FILTER
FILTER_SET: 1024

*** ChampSim Multicore Out-of-Order Simulator ***

Warmup Instructions: 50000000
Simulation Instructions: 50000000
Number of CPUs: 1
LLC sets: 2048
LLC ways: 16
Off-chip DRAM Size: 4096 MB Channels: 1 Width: 64-bit Data Rate: 3200 MT/s

CPU 0 runs /ChampSim-master-BTBX/dpc3_traces/server_012.champsimtrace.xz
Basic BTB sets: 4096 ways: 4 indirect buffer size: 4096 RAS size: 64
CPU 0 L1D next line prefetcher
Heartbeat CPU 0 instructions: 10000002 cycles: 3192124 heartbeat IPC: 3.13271 cumulative IPC: 3.13271 (Simulation time: 0 hr 0 min 16 sec) 
Heartbeat CPU 0 instructions: 20000002 cycles: 6386902 heartbeat IPC: 3.13011 cumulative IPC: 3.13141 (Simulation time: 0 hr 0 min 33 sec) 
Heartbeat CPU 0 instructions: 30000001 cycles: 9583008 heartbeat IPC: 3.12881 cumulative IPC: 3.13054 (Simulation time: 0 hr 0 min 50 sec) 
Heartbeat CPU 0 instructions: 40000000 cycles: 12784848 heartbeat IPC: 3.1232 cumulative IPC: 3.1287 (Simulation time: 0 hr 1 min 7 sec) 
Heartbeat CPU 0 instructions: 50000003 cycles: 15979294 heartbeat IPC: 3.13043 cumulative IPC: 3.12905 (Simulation time: 0 hr 1 min 24 sec) 

Warmup complete CPU 0 instructions: 50000003 cycles: 15979294 (Simulation time: 0 hr 1 min 24 sec) 

Heartbeat CPU 0 instructions: 60000001 cycles: 27153700 heartbeat IPC: 0.894902 cumulative IPC: 0.894902 (Simulation time: 0 hr 1 min 40 sec) 
Heartbeat CPU 0 instructions: 70000000 cycles: 38334553 heartbeat IPC: 0.894386 cumulative IPC: 0.894644 (Simulation time: 0 hr 1 min 57 sec) 
Heartbeat CPU 0 instructions: 80000002 cycles: 49704910 heartbeat IPC: 0.87948 cumulative IPC: 0.889532 (Simulation time: 0 hr 2 min 14 sec) 
Heartbeat CPU 0 instructions: 90000000 cycles: 61208530 heartbeat IPC: 0.869291 cumulative IPC: 0.884384 (Simulation time: 0 hr 2 min 31 sec) 
Heartbeat CPU 0 instructions: 100000002 cycles: 72595197 heartbeat IPC: 0.87822 cumulative IPC: 0.883144 (Simulation time: 0 hr 2 min 48 sec) 
Finished CPU 0 instructions: 50000001 cycles: 56615904 cumulative IPC: 0.883144 (Simulation time: 0 hr 2 min 48 sec) 

ChampSim completed all CPUs

Region of Interest Statistics

CPU 0
XXX cumulative-IPC 0.883144
XXX instructions 50000001
XXX cycles 56615904
L1D TOTAL     ACCESS:   18217010  HIT:   17173018  MISS:    1043992
L1D LOAD      ACCESS:    6695887  HIT:    6219626  MISS:     476261
L1D RFO       ACCESS:    5045955  HIT:    4963571  MISS:      82384
L1D PREFETCH  ACCESS:    6475168  HIT:    5989821  MISS:     485347
L1D WRITEBACK ACCESS:          0  HIT:          0  MISS:          0
L1D PREFETCH  REQUESTED:    6734039  ISSUED:    6632889
XXX L1D-USEFUL 144186
XXX L1D-USELESS 341182
L1D AVERAGE MISS LATENCY: 39.1809 cycles
L1I TOTAL     ACCESS:   13091980  HIT:   11507311  MISS:    1584669
L1I LOAD      ACCESS:    8573477  HIT:    7586628  MISS:     986849
L1I RFO       ACCESS:          0  HIT:          0  MISS:          0
L1I PREFETCH  ACCESS:    4518503  HIT:    3920683  MISS:     597820
L1I WRITEBACK ACCESS:          0  HIT:          0  MISS:          0
L1I PREFETCH  REQUESTED:    6319482  ISSUED:    6319482
XXX L1I-USEFUL 367673
XXX L1I-USELESS 230152
L1I AVERAGE MISS LATENCY: 16.9577 cycles
L2C TOTAL     ACCESS:    3505805  HIT:    2170703  MISS:    1335102
L2C LOAD      ACCESS:     855842  HIT:     549119  MISS:     306723
L2C RFO       ACCESS:      81324  HIT:      32625  MISS:      48699
L2C PREFETCH  ACCESS:    2293053  HIT:    1314629  MISS:     978424
L2C WRITEBACK ACCESS:     275586  HIT:     274330  MISS:       1256
L2C PREFETCH  REQUESTED:    2713962  ISSUED:    2713810
XXX L2C-USEFUL 103050
XXX L2C-USELESS 873535
L2C AVERAGE MISS LATENCY: 42.9548 cycles
LLC TOTAL     ACCESS:    2384970  HIT:    2227186  MISS:     157784
LLC LOAD      ACCESS:     306529  HIT:     287649  MISS:      18880
LLC RFO       ACCESS:      48699  HIT:      39080  MISS:       9619
LLC PREFETCH  ACCESS:    1862660  HIT:    1733703  MISS:     128957
LLC WRITEBACK ACCESS:     167082  HIT:     166754  MISS:        328
LLC PREFETCH  REQUESTED:          0  ISSUED:          0
XXX LLC-USEFUL 13534
XXX LLC-USELESS 113695
LLC AVERAGE MISS LATENCY: 163.163 cycles
Major fault: 0 Minor fault: 5602
XXX disp-0 1755151
XXX disp-1 0
XXX disp-2 437
XXX disp-3 1028180
XXX disp-4 823834
XXX disp-5 605216
XXX disp-6 589071
XXX disp-7 627165
XXX disp-8 383055
XXX disp-9 242090
XXX disp-10 222626
XXX disp-11 134373
XXX disp-12 76647
XXX disp-13 53548
XXX disp-14 55694
XXX disp-15 90480
XXX disp-16 45495
XXX disp-17 73884
XXX disp-18 151548
XXX disp-19 117102
XXX disp-20 266610
XXX disp-21 225496
XXX disp-22 184647
XXX disp-23 150483
XXX disp-24 50750
XXX disp-25 82881
XXX disp-26 32966
XXX disp-27 508
XXX disp-28 26254
XXX disp-29 0
XXX disp-30 0
XXX disp-31 0
XXX disp-32 0
XXX disp-33 0
XXX disp-34 0
XXX disp-35 0
XXX disp-36 0
XXX disp-37 0
XXX disp-38 0
XXX disp-39 0
XXX disp-40 0
XXX disp-41 0
XXX disp-42 0
XXX disp-43 0
XXX disp-44 0
XXX disp-45 0
XXX disp-46 0
XXX disp-47 0
XXX disp-48 0
XXX disp-49 0
XXX disp-50 0
XXX disp-51 0
XXX disp-52 0
XXX disp-53 0
XXX disp-54 0
XXX disp-55 0
XXX disp-56 0
XXX disp-57 0
XXX disp-58 0
XXX disp-59 0
XXX disp-60 0
XXX disp-61 0
XXX disp-62 0
XXX disp-63 21
XXX disp-64 0
XXX disp-65 0
XXX diffBits-0 1755151
XXX diffBits-1 106
XXX diffBits-2 268452
XXX diffBits-3 594159
XXX diffBits-4 726048
XXX diffBits-5 703990
XXX diffBits-6 531471
XXX diffBits-7 580933
XXX diffBits-8 350756
XXX diffBits-9 456050
XXX diffBits-10 161193
XXX diffBits-11 115716
XXX diffBits-12 151529
XXX diffBits-13 112807
XXX diffBits-14 38148
XXX diffBits-15 65895
XXX diffBits-16 113815
XXX diffBits-17 90502
XXX diffBits-18 97960
XXX diffBits-19 225027
XXX diffBits-20 252219
XXX diffBits-21 144906
XXX diffBits-22 226963
XXX diffBits-23 189786
XXX diffBits-24 0
XXX diffBits-25 115847
XXX diffBits-26 0
XXX diffBits-27 26762
XXX diffBits-28 0
XXX diffBits-29 0
XXX diffBits-30 0
XXX diffBits-31 0
XXX diffBits-32 0
XXX diffBits-33 0
XXX diffBits-34 0
XXX diffBits-35 0
XXX diffBits-36 0
XXX diffBits-37 0
XXX diffBits-38 0
XXX diffBits-39 0
XXX diffBits-40 0
XXX diffBits-41 0
XXX diffBits-42 0
XXX diffBits-43 0
XXX diffBits-44 0
XXX diffBits-45 0
XXX diffBits-46 0
XXX diffBits-47 0
XXX diffBits-48 0
XXX diffBits-49 0
XXX diffBits-50 0
XXX diffBits-51 0
XXX diffBits-52 0
XXX diffBits-53 0
XXX diffBits-54 0
XXX diffBits-55 0
XXX diffBits-56 0
XXX diffBits-57 0
XXX diffBits-58 0
XXX diffBits-59 0
XXX diffBits-60 0
XXX diffBits-61 0
XXX diffBits-62 21
XXX diffBits-63 0
XXX diffBits-64 0
XXX diffBits-65 0
CPU 0 L1D next line prefetcher final stats

DRAM Statistics
 CHANNEL 0
 RQ ROW_BUFFER_HIT:      25582  ROW_BUFFER_MISS:     131870
 DBUS_CONGESTED:      54551
 WQ ROW_BUFFER_HIT:      10180  ROW_BUFFER_MISS:      49159  FULL:          0

 AVG_CONGESTED_CYCLE: 5

CPU 0 Branch Prediction Accuracy: 92.5974% MPKI: 13.7668 Average ROB Occupancy at Mispredict: 55.6938

XXX total_mispredicts 688342
XXX total_target_mispredicts1 422469
XXX total_target_mispredicts2 233907
XXX total_direction_mispredicts 31966
XXX mispredict_on_btb_hit 152773
XXX NOT_BRANCH: 0
XXX BRANCH_DIRECT_JUMP: 0
XXX BRANCH_INDIRECT: 23586
XXX BRANCH_CONDITIONAL: 0
XXX BRANCH_DIRECT_CALL: 9
XXX BRANCH_INDIRECT_CALL: 4612
XXX BRANCH_RETURN: 124566
XXX BRANCH_OTHER: 0
Branch types
NOT_BRANCH: 40700943 81.4019%
BRANCH_DIRECT_JUMP: 469808 0.939616%
BRANCH_INDIRECT: 153732 0.307464%
BRANCH_CONDITIONAL: 6944056 13.8881%
BRANCH_DIRECT_CALL: 679877 1.35975%
BRANCH_INDIRECT_CALL: 168745 0.33749%
BRANCH_RETURN: 882491 1.76498%
BRANCH_OTHER: 0 0%

XXX BTB_reads: 8357907
XXX BTB_writes: 503586
XXX PageBTB_reads: 0
XXX PageBTB_writes: 0
XXX PageBTB_readsBeforeWrite: 0
XXX RegionBTB_reads: 0
XXX RegionBTB_writes: 0
XXX RegionBTB_readsBeforeWrite: 0
XXX BTB_4D_Hits 688482
XXX BTB_6D_Hits 562012
XXX BTB_8D_Hits 617534
XXX BTB_12D_Hits 213237
XXX BTB_18D_Hits 356068
XXX BTB_25D_Hits 273349
XXX BTB_46D_Hits 12147
XXX BTB_Ret_Hits 840982
XXX BTB_4D_Misses 104748
XXX BTB_6D_Misses 28349
XXX BTB_8D_Misses 65797
XXX BTB_12D_Misses 47403
XXX BTB_18D_Misses 35078
XXX BTB_25D_Misses 83281
XXX BTB_46D_Misses 97421
XXX BTB_Ret_Misses 41509
XXX Num_unique_branches 22348
total instructions: 0
wc,tif,trb
1280,8032,18556
1758,9872,16082
1959,14513,13070
1081,8959,8437
830,5711,9757
82,693,353
3255,15788,26153
683,4229,6319
475,2888,3748
230,1821,3439
458,3428,3954
2629,11694,26024
1173,7679,12056
246,1885,2402
760,3899,12105
817,4737,9290
1357,9107,17518
1009,6514,6448
2911,14342,28310
2398,15683,15756
1290,8988,7873
1007,4603,9477
1749,11515,12702
1485,8628,14450
1758,10634,15980
18,135,147
422,3240,2953
1380,8959,10746
2331,14209,18397
341,2166,1909
1492,10309,15243
1064,8191,6015
2116,10816,19016
2107,13714,15349
628,3306,8474
2060,17577,5763
1084,5935,14622
350,2541,4126
593,3142,10505
2255,12390,12711
1940,12797,11623
807,4006,11459
884,6574,6973
603,3186,8553
1610,7617,18738
1127,7346,13525
2105,12861,16428
1574,12349,15057
545,3791,3802
178,933,2267
1342,10469,5930
2234,11700,14178
954,6762,7525
2941,16045,29940
165,634,3117
1581,11532,10309
1011,5955,10618
1267,6649,13615
449,1879,9020
1707,9165,16945
2141,10428,20759
3964,23252,36129
2267,13889,20981
859,3337,12008
1924,11825,18996
1898,14433,11438
2546,12240,26278
2349,12589,13249
29,145,220
1482,8383,15266
2571,12376,20570
1221,7721,13176
1634,8614,17627
741,5549,6466
1758,5619,25556
1776,9630,17234
1017,5292,16733
19,51,298
1324,8203,14708
716,3814,7508
1407,9176,11171
1447,5606,19824
3455,18208,23849
2289,14360,18487
3864,22761,22353
1327,7536,15910
2326,12403,19918
2118,10129,21292
2686,14888,22882
2551,13650,22236
2357,14210,18114
1407,6251,19298
2546,16851,10776
2030,8098,21108
2706,19034,26455
1679,10615,13664
1137,6325,15825
2587,14321,19750
2831,16502,26591
895,4620,15447
1878,13425,14419
1592,7460,20215
1081,4376,16797
3535,22540,17164
1743,9481,16862
2348,12450,24108
893,3682,13565
1276,8260,8941
1021,6615,14867
845,5913,4983
2374,10395,26963
1248,9676,7753
777,4785,8343
2477,15529,24821
1086,6748,11966
3163,15154,30109
1365,7053,14306
1554,10002,12115
1463,6530,16512
1793,9503,16907
40,224,656
896,7790,9250
1768,9358,28310
2922,20251,22552
901,3255,17194
2530,16238,19824
1522,9318,17310
2694,13944,32060
2348,15059,19908
2173,11744,19992
2005,9960,21941
3018,15751,26315
2620,14289,28906
1758,8932,14928
2279,14661,11521
2696,19534,20735
1953,15171,8666
1233,6675,12840
2060,11810,23663
2700,10667,28750
896,5139,8600
1460,9154,12195
2128,9902,19908
1157,7156,14161
1398,9492,10567
922,5285,13867
1105,7297,13528
2829,12908,24817
2471,15399,13658
1348,9705,13254
2871,12817,27853
1968,7761,17383
381,1888,6569
2335,16543,13409
1403,8460,12975
2361,11228,17951
2030,8423,24954
861,4723,11896
2725,12554,29927
1663,9434,13895
2506,15063,17376
3093,15962,24825
1979,8046,23537
968,7017,8945
2861,14741,24706
59,335,978
2344,13698,21677
1207,4434,17464
2900,20953,18061
1419,9475,8632
1401,6810,13409
3680,24162,27558
1255,7401,14428
1994,8573,27331
1206,4869,14021
1989,12027,16323
1197,7766,7071
1883,10665,18394
1336,5520,21003
1328,8038,15659
1995,7498,19387
774,4605,8110
2203,12849,12032
2371,12750,22490
2108,11022,24042
1627,10172,10415
3104,15197,25255
1708,9824,17799
1444,9363,11599
633,2158,12383
2176,13082,18572
1471,5662,19668
1756,8855,16756
3183,14948,31585
1285,10545,7379
2356,11637,24298
1014,4297,18806
2722,16038,23622
1579,9196,13047
876,6094,10781
2387,13318,22114
1895,11596,17644
1787,9799,13430
2445,14103,18719
1561,10083,19872
1739,12895,11137
1349,8161,11069
1285,3504,17903
3072,16848,24539
1479,10622,12093
938,4810,10980
1348,10632,12512
1150,6098,10301
2546,13537,22863
1725,9699,14248
2093,9119,21987
3567,17981,32604
1103,6296,18300
3518,15883,37775
2629,14240,25808
759,3551,14348
4148,27414,27595
2631,17415,18549
2106,11182,27415
1726,10679,16181
2144,11563,22261
1224,8214,8101
3176,16992,19651
3202,20029,22189
2603,18732,20143
1795,10252,18896
1696,10274,14821
374,3049,2749
1331,8692,12275
2308,8952,31201
4659,24279,43636
1463,7486,12959
3889,18551,40160
1795,9724,17218
1036,5683,14121
655,4510,8041
3048,14333,27025
1941,9721,15190
2066,9966,19004
3176,18003,23924
861,4565,11086
612,2457,9955
1547,9819,13242
842,4860,11004
3007,18639,17026
1750,8464,13836
1627,7700,15970
1916,11726,16496
2238,14890,12327
644,2396,12780
4946,25395,57921
537,3470,6541
2714,18456,12265
3273,19990,20188
788,4210,9537
1583,7716,16996
183,1259,2014
2224,12224,19430
88,697,699
874,5241,8277
2769,19042,10165
1903,9878,20332
1166,7430,10445
1798,6927,21317
1885,8816,15386
1730,8152,16352
1825,7693,18520
2111,14701,18284
1925,10432,16174
710,3655,9873
1565,8797,12771
2437,15205,16661
2888,15383,28317
3226,12716,32856
2243,8653,20145
2259,13321,21726
999,6437,10882
1251,8043,14902
2338,11925,19848
2740,22132,14817
2079,9693,21606
1315,8755,11203
2754,19016,22098
1945,12752,12969
1932,9933,17768
1120,8047,8748
2320,16037,13146
1165,5186,15367
2270,9915,22061
1308,7801,12547
2940,16795,27179
1749,11987,11359
2215,16244,11679
1181,7270,11229
3171,17314,32640
2155,15649,14443
1907,9923,16906
2452,12277,20112
2797,16612,20869
1573,10089,14280
1902,14030,11478
2417,10212,29387
2769,15098,19774
2343,13705,23414
2270,9902,19499
523,3128,9099
987,5314,16455
1903,12558,10286
915,5279,9053
2029,14768,16015
2364,13222,33911
4095,27345,28483
816,3338,12460
2000,9638,21128
2547,16821,23361
2119,16292,9674
2123,14214,14847
2565,16909,20554
2527,17965,12496
412,2503,3483
199,652,4149
1431,7605,17980
1532,7931,14287
1448,7093,17301
1770,12000,13738
3007,17914,19970
3024,17501,21865
1283,8794,11313
1933,10383,18930
1299,7515,10499
2138,10579,21751
1372,7354,13692
1195,5587,12714
530,4509,3433
1898,9049,18755
1566,5618,15613
3804,22532,30807
2167,11727,18735
2101,12092,21613
638,4307,4220
1971,13745,15007
3865,12729,38303
1631,12424,10919
3498,18316,30356
3797,22468,26486
2545,16945,23554
2118,10765,22519
756,3056,14064
2381,13530,22980
1801,8321,15347
455,2713,6194
449,2709,4609
1051,7844,7671
1544,9103,14895
569,3547,6640
1891,13944,10208
753,4669,11306
2337,11336,23927
1650,13822,7746
735,4103,12416
1886,9946,19185
1631,8963,9478
1170,8450,7398
803,5208,8123
2597,13529,18323
763,4255,10072
3954,20538,32646
1918,9495,14895
1914,9820,20884
1722,6294,14098
2287,11655,18487
2011,14005,10831
3463,26467,15338
985,6059,8894
2078,10785,17062
1641,9474,13369
2228,10623,18072
1520,11616,17818
1944,10825,15441
2121,13387,13910
1052,6353,5479
1363,7140,13141
1547,9309,13310
1841,11461,12795
1091,4039,17352
173,727,2974
1243,5556,10378
1118,8609,8285
2055,18084,11404
2351,13828,12970
1142,5112,12909
2123,12225,17178
1700,9403,13760
2769,13723,30604
1112,6180,12219
1202,7225,12271
2245,14979,14173
1950,11859,16621
2725,14803,18308
1712,11379,15831
3167,16000,24631
2217,10126,29919
1658,9553,19502
1606,7886,19053
1625,9827,11104
2719,14929,21761
1049,4273,18709
2561,13740,21705
3613,17979,33493
2180,10564,23640
1526,10511,12799
1608,8360,12104
2586,13367,24781
1002,5733,10931
1632,11110,17185
389,2807,5168
1338,11322,4357
1138,6157,11477
3798,20768,32891
2612,14502,20285
2317,11910,23245
1799,9888,13887
3797,15450,44273
2185,10700,28631
1905,12836,17255
482,1364,9470
1112,6860,7716
2365,13571,16023
1237,9025,10687
1822,10755,15074
2971,11872,29753
2533,15409,13744
2204,14666,13665
1646,9053,15612
2385,10950,18420
2218,11494,19059
1966,9970,28104
1359,10725,9843
4053,20551,23553
579,3151,8064
1567,9571,11714
2491,15084,21249
3032,20818,29422
1833,15742,11453
2488,13367,15560
1427,6410,18410
2141,9224,21784
275,814,5030
1790,10743,15736
2534,13553,9111
2009,14797,9718
2969,15845,24614
207,1961,1622
861,4066,12939
837,5072,9314
3617,23340,28082
1740,8377,20822
2518,17868,17947
1696,9482,21025
1696,8453,14566
1831,8430,29471
1658,12182,12381
3487,19942,31401
1676,13753,8109
4134,21189,38879
1445,6413,17094
1024,7091,7006
1723,9125,17412
2088,10893,24457
2873,16392,37967
1519,7806,16941
952,6086,10270
878,5587,6607
1588,8581,17938
1678,9140,15734
2383,13852,15498
779,3579,13392
1369,10882,9813
2795,19938,14538
1214,6156,19043
570,3340,6582
2972,17572,23768
2182,8827,22737
1592,10490,15848
1736,9336,17746
1095,6307,11048
1352,7782,14490
425,1776,8481
3156,12864,38765
567,4726,3668
2238,10534,17415
1610,9120,7972
1110,5992,13108
4211,26883,42389
569,4903,5225
851,6781,6540
87,577,968
1503,7882,19688
1577,8603,14781
2184,14385,16663
806,2918,14120
1794,10060,19971
2305,12818,17686
807,4917,7324
1899,11760,25739
1411,11820,18684
2086,12333,27674
