Initialize SIGNATURE TABLE
ST_SET: 1
ST_WAY: 256
ST_TAG_BIT: 16
ST_TAG_MASK: ffff

Initialize PATTERN TABLE
PT_SET: 512
PT_WAY: 4
SIG_DELTA_BIT: 7
C_SIG_BIT: 4
C_DELTA_BIT: 4

Initialize PREFETCH FILTER
FILTER_SET: 1024

*** ChampSim Multicore Out-of-Order Simulator ***

Warmup Instructions: 50000000
Simulation Instructions: 50000000
Number of CPUs: 1
LLC sets: 2048
LLC ways: 16
Off-chip DRAM Size: 4096 MB Channels: 1 Width: 64-bit Data Rate: 3200 MT/s

CPU 0 runs /ChampSim-master-BTBX/dpc3_traces/server_029.champsimtrace.xz
Basic BTB sets: 4096 ways: 4 indirect buffer size: 4096 RAS size: 64
CPU 0 L1D next line prefetcher
Heartbeat CPU 0 instructions: 10000001 cycles: 3493553 heartbeat IPC: 2.86242 cumulative IPC: 2.86242 (Simulation time: 0 hr 0 min 18 sec) 
Heartbeat CPU 0 instructions: 20000002 cycles: 6986532 heartbeat IPC: 2.86289 cumulative IPC: 2.86265 (Simulation time: 0 hr 0 min 36 sec) 
Heartbeat CPU 0 instructions: 30000003 cycles: 10481086 heartbeat IPC: 2.8616 cumulative IPC: 2.8623 (Simulation time: 0 hr 0 min 54 sec) 
Heartbeat CPU 0 instructions: 40000000 cycles: 13982054 heartbeat IPC: 2.85635 cumulative IPC: 2.86081 (Simulation time: 0 hr 1 min 12 sec) 
Heartbeat CPU 0 instructions: 50000000 cycles: 17482123 heartbeat IPC: 2.85709 cumulative IPC: 2.86006 (Simulation time: 0 hr 1 min 30 sec) 

Warmup complete CPU 0 instructions: 50000004 cycles: 17482124 (Simulation time: 0 hr 1 min 30 sec) 

Heartbeat CPU 0 instructions: 60000000 cycles: 30787778 heartbeat IPC: 0.75156 cumulative IPC: 0.75156 (Simulation time: 0 hr 1 min 48 sec) 
Heartbeat CPU 0 instructions: 70000003 cycles: 44272239 heartbeat IPC: 0.741595 cumulative IPC: 0.746544 (Simulation time: 0 hr 2 min 5 sec) 
Heartbeat CPU 0 instructions: 80000002 cycles: 57601929 heartbeat IPC: 0.750205 cumulative IPC: 0.74776 (Simulation time: 0 hr 2 min 23 sec) 
*** Reached end of trace for Core: 0 Repeating trace: /ChampSim-master-BTBX/dpc3_traces/server_029.champsimtrace.xz
Heartbeat CPU 0 instructions: 90000000 cycles: 70806185 heartbeat IPC: 0.757331 cumulative IPC: 0.75013 (Simulation time: 0 hr 2 min 40 sec) 
Heartbeat CPU 0 instructions: 100000000 cycles: 83956051 heartbeat IPC: 0.760464 cumulative IPC: 0.752175 (Simulation time: 0 hr 2 min 58 sec) 
Finished CPU 0 instructions: 50000000 cycles: 66473928 cumulative IPC: 0.752175 (Simulation time: 0 hr 2 min 58 sec) 

ChampSim completed all CPUs

Region of Interest Statistics

CPU 0
XXX cumulative-IPC 0.752175
XXX instructions 50000000
XXX cycles 66473928
L1D TOTAL     ACCESS:   21516955  HIT:   19416824  MISS:    2100131
L1D LOAD      ACCESS:    7888105  HIT:    6834005  MISS:    1054100
L1D RFO       ACCESS:    6232665  HIT:    5948480  MISS:     284185
L1D PREFETCH  ACCESS:    7396185  HIT:    6634339  MISS:     761846
L1D WRITEBACK ACCESS:          0  HIT:          0  MISS:          0
L1D PREFETCH  REQUESTED:    7958934  ISSUED:    7879882
XXX L1D-USEFUL 189400
XXX L1D-USELESS 572437
L1D AVERAGE MISS LATENCY: 23.1567 cycles
L1I TOTAL     ACCESS:   13699858  HIT:   10150054  MISS:    3549804
L1I LOAD      ACCESS:    9298362  HIT:    7340405  MISS:    1957957
L1I RFO       ACCESS:          0  HIT:          0  MISS:          0
L1I PREFETCH  ACCESS:    4401496  HIT:    2809649  MISS:    1591847
L1I WRITEBACK ACCESS:          0  HIT:          0  MISS:          0
L1I PREFETCH  REQUESTED:    7428986  ISSUED:    7428986
XXX L1I-USEFUL 1008618
XXX L1I-USELESS 583239
L1I AVERAGE MISS LATENCY: 13.7736 cycles
L2C TOTAL     ACCESS:    7941047  HIT:    6714093  MISS:    1226954
L2C LOAD      ACCESS:    1855371  HIT:    1484942  MISS:     370429
L2C RFO       ACCESS:     281779  HIT:     206915  MISS:      74864
L2C PREFETCH  ACCESS:    5192993  HIT:    4416804  MISS:     776189
L2C WRITEBACK ACCESS:     610904  HIT:     605432  MISS:       5472
L2C PREFETCH  REQUESTED:    5567099  ISSUED:    5565991
XXX L2C-USEFUL 50055
XXX L2C-USELESS 725202
L2C AVERAGE MISS LATENCY: 37.4711 cycles
LLC TOTAL     ACCESS:    2712700  HIT:    2639507  MISS:      73193
LLC LOAD      ACCESS:     370027  HIT:     353012  MISS:      17015
LLC RFO       ACCESS:      74859  HIT:      71175  MISS:       3684
LLC PREFETCH  ACCESS:    2103318  HIT:    2051240  MISS:      52078
LLC WRITEBACK ACCESS:     164496  HIT:     164080  MISS:        416
LLC PREFETCH  REQUESTED:          0  ISSUED:          0
XXX LLC-USEFUL 2434
XXX LLC-USELESS 49261
LLC AVERAGE MISS LATENCY: 153.488 cycles
Major fault: 0 Minor fault: 5924
XXX disp-0 2347707
XXX disp-1 0
XXX disp-2 1685
XXX disp-3 375778
XXX disp-4 1509862
XXX disp-5 1091878
XXX disp-6 1334471
XXX disp-7 716176
XXX disp-8 636942
XXX disp-9 371835
XXX disp-10 262848
XXX disp-11 243082
XXX disp-12 116713
XXX disp-13 154326
XXX disp-14 128252
XXX disp-15 160375
XXX disp-16 84865
XXX disp-17 44609
XXX disp-18 158202
XXX disp-19 97864
XXX disp-20 123461
XXX disp-21 296768
XXX disp-22 168712
XXX disp-23 422710
XXX disp-24 81722
XXX disp-25 0
XXX disp-26 0
XXX disp-27 0
XXX disp-28 0
XXX disp-29 0
XXX disp-30 0
XXX disp-31 0
XXX disp-32 0
XXX disp-33 0
XXX disp-34 0
XXX disp-35 0
XXX disp-36 0
XXX disp-37 0
XXX disp-38 0
XXX disp-39 0
XXX disp-40 0
XXX disp-41 0
XXX disp-42 0
XXX disp-43 0
XXX disp-44 0
XXX disp-45 0
XXX disp-46 236591
XXX disp-47 0
XXX disp-48 0
XXX disp-49 0
XXX disp-50 0
XXX disp-51 0
XXX disp-52 0
XXX disp-53 0
XXX disp-54 0
XXX disp-55 0
XXX disp-56 0
XXX disp-57 0
XXX disp-58 0
XXX disp-59 0
XXX disp-60 0
XXX disp-61 0
XXX disp-62 0
XXX disp-63 0
XXX disp-64 0
XXX disp-65 0
XXX diffBits-0 2347707
XXX diffBits-1 1604
XXX diffBits-2 156565
XXX diffBits-3 608938
XXX diffBits-4 1144134
XXX diffBits-5 1173568
XXX diffBits-6 862547
XXX diffBits-7 660208
XXX diffBits-8 485059
XXX diffBits-9 566745
XXX diffBits-10 425854
XXX diffBits-11 266230
XXX diffBits-12 205265
XXX diffBits-13 166872
XXX diffBits-14 84136
XXX diffBits-15 123862
XXX diffBits-16 139148
XXX diffBits-17 108712
XXX diffBits-18 69267
XXX diffBits-19 155039
XXX diffBits-20 246967
XXX diffBits-21 265207
XXX diffBits-22 478846
XXX diffBits-23 0
XXX diffBits-24 0
XXX diffBits-25 188363
XXX diffBits-26 0
XXX diffBits-27 0
XXX diffBits-28 0
XXX diffBits-29 0
XXX diffBits-30 0
XXX diffBits-31 0
XXX diffBits-32 0
XXX diffBits-33 0
XXX diffBits-34 0
XXX diffBits-35 0
XXX diffBits-36 0
XXX diffBits-37 0
XXX diffBits-38 0
XXX diffBits-39 0
XXX diffBits-40 0
XXX diffBits-41 0
XXX diffBits-42 0
XXX diffBits-43 0
XXX diffBits-44 0
XXX diffBits-45 236591
XXX diffBits-46 0
XXX diffBits-47 0
XXX diffBits-48 0
XXX diffBits-49 0
XXX diffBits-50 0
XXX diffBits-51 0
XXX diffBits-52 0
XXX diffBits-53 0
XXX diffBits-54 0
XXX diffBits-55 0
XXX diffBits-56 0
XXX diffBits-57 0
XXX diffBits-58 0
XXX diffBits-59 0
XXX diffBits-60 0
XXX diffBits-61 0
XXX diffBits-62 0
XXX diffBits-63 0
XXX diffBits-64 0
XXX diffBits-65 0
CPU 0 L1D next line prefetcher final stats

DRAM Statistics
 CHANNEL 0
 RQ ROW_BUFFER_HIT:      21332  ROW_BUFFER_MISS:      51432
 DBUS_CONGESTED:      28308
 WQ ROW_BUFFER_HIT:        529  ROW_BUFFER_MISS:       4103  FULL:          0

 AVG_CONGESTED_CYCLE: 4

CPU 0 Branch Prediction Accuracy: 86.4808% MPKI: 25.4517 Average ROB Occupancy at Mispredict: 53.6464

XXX total_mispredicts 1272587
XXX total_target_mispredicts1 993041
XXX total_target_mispredicts2 255924
XXX total_direction_mispredicts 23622
XXX mispredict_on_btb_hit 234093
XXX NOT_BRANCH: 0
XXX BRANCH_DIRECT_JUMP: 0
XXX BRANCH_INDIRECT: 17066
XXX BRANCH_CONDITIONAL: 0
XXX BRANCH_DIRECT_CALL: 0
XXX BRANCH_INDIRECT_CALL: 12025
XXX BRANCH_RETURN: 205002
XXX BRANCH_OTHER: 0
Branch types
NOT_BRANCH: 40586634 81.1733%
BRANCH_DIRECT_JUMP: 525211 1.05042%
BRANCH_INDIRECT: 166359 0.332718%
BRANCH_CONDITIONAL: 6373095 12.7462%
BRANCH_DIRECT_CALL: 989263 1.97853%
BRANCH_INDIRECT_CALL: 184984 0.369968%
BRANCH_RETURN: 1174251 2.3485%
BRANCH_OTHER: 0 0%

XXX BTB_reads: 15283500
XXX BTB_writes: 1014872
XXX PageBTB_reads: 0
XXX PageBTB_writes: 0
XXX PageBTB_readsBeforeWrite: 0
XXX RegionBTB_reads: 0
XXX RegionBTB_writes: 0
XXX RegionBTB_readsBeforeWrite: 0
XXX BTB_4D_Hits 925456
XXX BTB_6D_Hits 941394
XXX BTB_8D_Hits 700162
XXX BTB_12D_Hits 369882
XXX BTB_18D_Hits 247109
XXX BTB_25D_Hits 191070
XXX BTB_46D_Hits 69588
XXX BTB_Ret_Hits 1124866
XXX BTB_4D_Misses 31152
XXX BTB_6D_Misses 24183
XXX BTB_8D_Misses 94360
XXX BTB_12D_Misses 112434
XXX BTB_18D_Misses 85640
XXX BTB_25D_Misses 222483
XXX BTB_46D_Misses 395235
XXX BTB_Ret_Misses 49385
XXX Num_unique_branches 8629
total instructions: 0
wc,tif,trb
6405,31708,124863
232,1658,3105
174,1391,2728
431,3021,4834
9,23,82
24,218,86
3455,20922,44321
6336,22825,115149
6453,63019,63581
6381,49195,68238
941,7884,9629
6962,31476,112674
23,151,298
699,4003,12612
164,640,3358
18,40,164
4553,43208,56569
220,1886,2930
3500,12431,74038
8,34,46
3401,23232,57025
10,39,91
3062,19840,56548
3214,11252,68978
4566,18345,95475
3920,38585,48039
1667,11682,14787
3122,12571,65331
3067,16783,59631
6,17,74
8226,41325,139107
269,2631,2999
8275,55106,77441
233,737,4956
3215,14683,65356
472,2492,6136
3862,17483,78895
2844,9711,61249
3169,12895,64882
847,2078,19031
210,1429,3738
10,50,80
168,1992,2076
247,1214,4862
178,608,3604
715,5092,5152
538,3082,5424
4668,14261,102319
3060,4612,71724
205,543,1398
34,238,456
8449,47413,109336
9477,59483,113195
91,228,1947
141,992,1874
5580,29115,103727
3127,19757,58270
8,19,61
5139,37456,68964
169,416,3689
6,7,49
12150,38660,151567
3452,27519,46593
187,422,4060
10,42,56
9454,50708,86976
2931,11486,61685
186,1053,3511
5406,32092,83988
395,2178,4833
241,1344,3859
4577,41140,59415
3188,12899,65706
1556,10342,21391
2506,8773,53729
494,4976,3943
4114,16556,76207
3148,14753,62791
3219,23373,55914
3848,23634,49262
3021,30634,42146
286,2092,3762
4615,16901,97876
8,58,22
7514,46665,118624
251,2130,2315
5,1,51
13597,53825,180179
12467,78548,100897
20,215,165
8021,65087,65303
7,10,66
3080,12367,64333
6,6,65
3067,13792,62601
6365,52244,83993
7634,52437,91681
721,4683,3805
8388,57654,123977
715,3353,7458
6,3,61
5120,33970,78662
3006,4509,70541
11888,95941,64205
6,15,56
6,6,30
10607,82222,97453
3369,31659,49320
3049,21284,54762
2745,25101,40024
4566,25314,88757
8019,61152,114748
163,718,3257
765,4559,9586
20,160,124
24,95,177
160,867,2154
9221,76465,80135
164,1182,2804
13476,84829,113521
583,4404,6475
3040,31898,40673
3059,13750,62519
344,3079,4333
5,2,42
254,2602,2844
9,30,110
379,2339,6121
4875,26781,94995
47,251,390
571,5547,3865
8534,67347,42253
5928,55433,46457
2910,8479,64190
3,2,14
347,1280,7275
79,507,1350
242,1112,2478
622,5415,7033
238,2118,811
824,3587,12303
828,4106,15879
13,75,130
3219,6463,73848
53,418,286
4874,40327,64311
8,39,41
218,942,3804
772,5674,6497
3130,17626,60504
9268,54963,126077
12431,81046,129397
3,4,16
443,3971,4234
163,638,3331
3,5,27
2764,16585,48963
17,150,127
531,3224,8945
164,1822,2158
318,2077,3515
8,14,66
216,1110,1785
10257,40558,128096
363,1753,5984
215,1324,3721
292,1488,4990
8,15,65
245,2722,2547
329,1979,5470
325,3003,2836
3292,29233,50630
2896,20980,36460
7,46,75
163,640,3346
775,5898,4959
3052,7637,68543
158,1142,2692
4,6,28
6406,40060,96606
203,2603,1724
250,2359,3788
2,1,6
12,40,128
1474,7701,13601
246,2854,2463
639,4032,4522
570,3730,6632
6085,25897,107945
7671,44225,128909
8,12,141
13462,76569,127765
9529,70478,91550
9,14,99
9,33,86
8,40,40
550,4941,3419
2065,19785,25523
9557,89842,51659
50,407,695
8,29,51
3064,26370,45810
11,43,68
30,467,163
162,941,3028
276,2958,2781
12,24,100
10,52,66
102,1418,736
12505,106320,71756
7,15,46
18,93,241
362,1212,6746
643,5379,4431
3215,9650,70611
1499,11052,15891
7731,67442,48443
13,30,211
6,9,51
167,497,3612
398,2206,4118
5,11,18
8,17,63
3633,12713,73601
6,19,49
223,1981,2800
254,2453,3039
6096,25891,108125
2220,5553,49862
434,3218,6809
163,946,3027
6,20,24
9012,80682,81446
3539,12702,71715
1842,7696,37263
3311,12148,67395
3209,11807,67362
7162,53283,81678
6,28,48
4804,9807,110205
12,62,132
6,7,66
189,807,3668
245,2833,2484
3585,38856,44029
6115,43429,67916
8355,46432,101954
16,123,205
4775,51376,50133
3754,25844,67902
173,510,2623
429,3276,3821
199,1305,2954
10723,50748,126105
5,14,50
3057,12064,64241
9280,50772,111698
5100,51750,56516
5,8,36
3050,4571,71581
3059,12238,64107
251,892,5257
97,448,1827
347,2732,4367
3297,20304,27156
3137,13740,64565
3,0,21
5576,16188,109910
3536,38103,41125
33,353,178
6,20,31
3100,11610,65674
302,2422,3076
7,20,53
3405,17269,63540
1313,14252,13561
3061,10699,65721
767,4250,6345
392,2009,2683
6154,36896,107175
4073,20138,67015
11,50,61
67,687,526
3052,6109,70091
4,10,24
48,365,288
12055,53270,139461
3287,22526,55997
13547,44749,157114
926,6284,4676
3444,23117,58405
12,102,52
14,78,84
6095,25379,89047
618,3479,6949
7,28,33
3187,29989,37610
23,135,268
168,588,3480
140,1004,1455
8,36,44
3053,16759,59446
27,218,225
635,4130,7179
2807,8264,60652
7115,62259,68686
8,38,42
182,744,3687
10,67,51
33,162,341
389,2795,3854
72,670,561
3126,8004,70073
843,6403,8290
1624,16491,21930
35,218,537
6024,28658,104422
6034,46972,60870
6115,32611,101881
3202,15893,63203
8109,76741,74338
232,1111,4179
14675,106191,75180
15960,79359,123870
3128,6408,71724
4,13,38
819,7866,4541
333,1382,6549
2913,11637,61104
21,154,199
14653,96251,140956
3536,22685,60995
5947,34719,96231
3000,26581,47033
11068,87618,80049
3702,11358,75942
5655,43466,82585
401,1604,7391
323,3422,2399
4168,39471,54895
438,1011,8341
10778,59045,148237
11519,81127,84221
453,2105,5790
3321,13619,68674
3469,12221,70886
4859,29948,67656
4681,20121,96652
3590,25014,61310
3920,20175,77643
3316,40717,37027
6293,36615,99556
5,8,51
451,4039,5330
14304,73634,121203
10463,31929,147047
7274,67240,63558
2450,26752,23688
3216,11827,67487
76,576,477
3251,26290,52172
320,1433,5511
22,167,235
549,2488,6587
6427,30988,107695
9220,72344,78663
207,607,4423
55,329,972
3616,8051,75955
3689,24165,59324
3740,17239,74613
535,4560,7605
517,3503,5357
7,38,55
755,6485,6036
25,270,153
2899,15782,56313
491,3562,5735
5691,49957,73226
3286,18749,59785
10726,67120,108886
626,4568,7882
7207,34623,115261
6,10,54
882,5266,8348
10,43,53
14,34,226
5275,30057,81765
6259,29280,108819
3151,8980,69531
4902,13259,98471
10120,54512,145134
373,2273,3975
18031,98406,145038
3489,13280,68407
9481,23349,147230
7466,69335,50265
17191,98386,87823
3054,16771,59496
3173,29479,47657
10247,67710,101315
15310,69443,217361
8435,61191,88422
22,115,287
3080,14612,61276
4932,18601,101041
28,131,229
4192,20988,77178
18249,95133,152339
74,675,993
364,3526,4018
3033,28483,46570
8291,60968,117655
13463,71167,142546
15557,70414,178618
646,2685,6953
352,3781,2423
231,1756,3209
30,283,270
3595,12469,73378
5,7,33
696,3944,3766
656,6175,7275
10926,73120,104157
287,1481,4748
17,124,181
334,1880,5332
9,24,90
9607,57343,92450
5,5,51
6,14,54
4463,51513,45316
460,3680,5334
151,1338,1543
3662,30748,53247
5,13,47
203,1270,3267
3272,10115,70731
3800,27722,58702
6284,52333,84709
7777,55759,87806
9652,67794,81674
4602,46616,52692
763,2757,8921
17860,85762,168967
6558,29212,132752
4363,25498,64215
5203,27219,90173
7,14,41
11256,53703,124603
10049,67912,119569
3602,28556,57263
4737,13252,105053
1613,11589,27310
168,253,3853
5231,59224,46575
1834,4772,39402
9637,57371,103009
7848,57523,89483
18616,97222,199310
9652,40555,131865
7,12,43
4575,30467,70084
5824,13250,118890
22292,124111,173191
3,4,5
3251,6751,74434
730,3315,9748
25,172,349
380,1799,3044
405,2689,1498
3053,12201,64004
9571,58710,115521
561,2924,9188
251,1491,2344
4954,33749,72539
3051,9148,67021
17440,107299,161557
11048,85874,73555
418,1750,8596
7736,41564,133276
8,17,63
3339,30236,50356
18805,115726,102230
6281,31785,88620
336,1298,5131
515,5021,3145
4219,15001,90379
7,15,95
6247,43449,92008
9238,44922,125988
10,68,62
4492,28079,70641
9342,50315,120773
3223,15479,65009
334,3202,4073
3521,16728,54374
171,585,3610
3262,5344,76086
370,3305,4679
163,406,3567
290,1886,2540
3650,28539,57677
290,2785,4181
9,56,65
37,135,680
3137,20234,57027
256,1828,4426
6523,47628,90168
3864,30139,61515
13258,49766,149980
3243,28559,51381
