Initialize SIGNATURE TABLE
ST_SET: 1
ST_WAY: 256
ST_TAG_BIT: 16
ST_TAG_MASK: ffff

Initialize PATTERN TABLE
PT_SET: 512
PT_WAY: 4
SIG_DELTA_BIT: 7
C_SIG_BIT: 4
C_DELTA_BIT: 4

Initialize PREFETCH FILTER
FILTER_SET: 1024

*** ChampSim Multicore Out-of-Order Simulator ***

Warmup Instructions: 50000000
Simulation Instructions: 50000000
Number of CPUs: 1
LLC sets: 2048
LLC ways: 16
Off-chip DRAM Size: 4096 MB Channels: 1 Width: 64-bit Data Rate: 3200 MT/s

CPU 0 runs /ChampSim-master-BTBX/dpc3_traces/server_033.champsimtrace.xz
Basic BTB sets: 4096 ways: 4 indirect buffer size: 4096 RAS size: 64
CPU 0 L1D next line prefetcher
Heartbeat CPU 0 instructions: 10000001 cycles: 3345015 heartbeat IPC: 2.98952 cumulative IPC: 2.98952 (Simulation time: 0 hr 18 min 1 sec) 
Heartbeat CPU 0 instructions: 20000003 cycles: 6688293 heartbeat IPC: 2.99108 cumulative IPC: 2.9903 (Simulation time: 0 hr 34 min 34 sec) 
Heartbeat CPU 0 instructions: 30000001 cycles: 10021429 heartbeat IPC: 3.00018 cumulative IPC: 2.99359 (Simulation time: 0 hr 34 min 52 sec) 
Heartbeat CPU 0 instructions: 40000000 cycles: 13363730 heartbeat IPC: 2.99195 cumulative IPC: 2.99318 (Simulation time: 0 hr 35 min 9 sec) 
Heartbeat CPU 0 instructions: 50000000 cycles: 16705209 heartbeat IPC: 2.99269 cumulative IPC: 2.99308 (Simulation time: 0 hr 35 min 27 sec) 

Warmup complete CPU 0 instructions: 50000004 cycles: 16705210 (Simulation time: 0 hr 35 min 27 sec) 

Heartbeat CPU 0 instructions: 60000000 cycles: 28575644 heartbeat IPC: 0.842429 cumulative IPC: 0.842429 (Simulation time: 0 hr 35 min 44 sec) 
Heartbeat CPU 0 instructions: 70000000 cycles: 40398243 heartbeat IPC: 0.845838 cumulative IPC: 0.84413 (Simulation time: 0 hr 36 min 2 sec) 
Heartbeat CPU 0 instructions: 80000000 cycles: 52915355 heartbeat IPC: 0.798906 cumulative IPC: 0.828497 (Simulation time: 0 hr 49 min 29 sec) 
Heartbeat CPU 0 instructions: 90000003 cycles: 64799731 heartbeat IPC: 0.841441 cumulative IPC: 0.831696 (Simulation time: 0 hr 49 min 47 sec) 
Heartbeat CPU 0 instructions: 100000001 cycles: 76622476 heartbeat IPC: 0.845827 cumulative IPC: 0.834484 (Simulation time: 0 hr 50 min 4 sec) 
Finished CPU 0 instructions: 50000000 cycles: 59917272 cumulative IPC: 0.834484 (Simulation time: 0 hr 50 min 4 sec) 

ChampSim completed all CPUs

Region of Interest Statistics

CPU 0
XXX cumulative-IPC 0.834484
XXX instructions 50000000
XXX cycles 59917272
L1D TOTAL     ACCESS:   20608035  HIT:   19123135  MISS:    1484900
L1D LOAD      ACCESS:    7261321  HIT:    6588466  MISS:     672855
L1D RFO       ACCESS:    6264150  HIT:    6112502  MISS:     151648
L1D PREFETCH  ACCESS:    7082564  HIT:    6422167  MISS:     660397
L1D WRITEBACK ACCESS:          0  HIT:          0  MISS:          0
L1D PREFETCH  REQUESTED:    7312031  ISSUED:    7212597
XXX L1D-USEFUL 149765
XXX L1D-USELESS 510638
L1D AVERAGE MISS LATENCY: 23.5065 cycles
L1I TOTAL     ACCESS:   15009170  HIT:   10950387  MISS:    4058783
L1I LOAD      ACCESS:    9484332  HIT:    7289809  MISS:    2194523
L1I RFO       ACCESS:          0  HIT:          0  MISS:          0
L1I PREFETCH  ACCESS:    5524838  HIT:    3660578  MISS:    1864260
L1I WRITEBACK ACCESS:          0  HIT:          0  MISS:          0
L1I PREFETCH  REQUESTED:    8794147  ISSUED:    8794147
XXX L1I-USEFUL 1165807
XXX L1I-USELESS 698447
L1I AVERAGE MISS LATENCY: 12.5471 cycles
L2C TOTAL     ACCESS:    8279861  HIT:    7965884  MISS:     313977
L2C LOAD      ACCESS:    2357829  HIT:    2225003  MISS:     132826
L2C RFO       ACCESS:     150367  HIT:     129137  MISS:      21230
L2C PREFETCH  ACCESS:    5404590  HIT:    5246986  MISS:     157604
L2C WRITEBACK ACCESS:     367075  HIT:     364758  MISS:       2317
L2C PREFETCH  REQUESTED:    6285745  ISSUED:    6280501
XXX L2C-USEFUL 13456
XXX L2C-USELESS 143741
L2C AVERAGE MISS LATENCY: 49.2844 cycles
LLC TOTAL     ACCESS:    1821354  HIT:    1756323  MISS:      65031
LLC LOAD      ACCESS:     132595  HIT:     117725  MISS:      14870
LLC RFO       ACCESS:      21230  HIT:      18382  MISS:       2848
LLC PREFETCH  ACCESS:    1562930  HIT:    1515930  MISS:      47000
LLC WRITEBACK ACCESS:     104599  HIT:     104286  MISS:        313
LLC PREFETCH  REQUESTED:          0  ISSUED:          0
XXX LLC-USEFUL 7921
XXX LLC-USELESS 37506
LLC AVERAGE MISS LATENCY: 166.234 cycles
Major fault: 0 Minor fault: 2485
XXX disp-0 2519757
XXX disp-1 0
XXX disp-2 2782
XXX disp-3 314727
XXX disp-4 1234921
XXX disp-5 1142750
XXX disp-6 1156959
XXX disp-7 898927
XXX disp-8 740057
XXX disp-9 597695
XXX disp-10 360462
XXX disp-11 280663
XXX disp-12 153738
XXX disp-13 165462
XXX disp-14 177384
XXX disp-15 89382
XXX disp-16 136626
XXX disp-17 254351
XXX disp-18 266309
XXX disp-19 59500
XXX disp-20 363439
XXX disp-21 94416
XXX disp-22 5679
XXX disp-23 187816
XXX disp-24 0
XXX disp-25 0
XXX disp-26 0
XXX disp-27 0
XXX disp-28 0
XXX disp-29 0
XXX disp-30 0
XXX disp-31 0
XXX disp-32 0
XXX disp-33 0
XXX disp-34 0
XXX disp-35 0
XXX disp-36 0
XXX disp-37 0
XXX disp-38 0
XXX disp-39 0
XXX disp-40 0
XXX disp-41 0
XXX disp-42 0
XXX disp-43 0
XXX disp-44 0
XXX disp-45 0
XXX disp-46 111709
XXX disp-47 0
XXX disp-48 0
XXX disp-49 0
XXX disp-50 0
XXX disp-51 0
XXX disp-52 0
XXX disp-53 0
XXX disp-54 0
XXX disp-55 0
XXX disp-56 0
XXX disp-57 0
XXX disp-58 0
XXX disp-59 0
XXX disp-60 0
XXX disp-61 0
XXX disp-62 0
XXX disp-63 0
XXX disp-64 0
XXX disp-65 0
XXX diffBits-0 2519757
XXX diffBits-1 0
XXX diffBits-2 148043
XXX diffBits-3 451651
XXX diffBits-4 864751
XXX diffBits-5 1118314
XXX diffBits-6 887578
XXX diffBits-7 681458
XXX diffBits-8 829372
XXX diffBits-9 815172
XXX diffBits-10 407451
XXX diffBits-11 316462
XXX diffBits-12 246254
XXX diffBits-13 223172
XXX diffBits-14 116884
XXX diffBits-15 68364
XXX diffBits-16 253907
XXX diffBits-17 78677
XXX diffBits-18 142439
XXX diffBits-19 521815
XXX diffBits-20 218602
XXX diffBits-21 105806
XXX diffBits-22 187873
XXX diffBits-23 0
XXX diffBits-24 0
XXX diffBits-25 0
XXX diffBits-26 0
XXX diffBits-27 0
XXX diffBits-28 0
XXX diffBits-29 0
XXX diffBits-30 0
XXX diffBits-31 0
XXX diffBits-32 0
XXX diffBits-33 0
XXX diffBits-34 0
XXX diffBits-35 0
XXX diffBits-36 0
XXX diffBits-37 0
XXX diffBits-38 0
XXX diffBits-39 0
XXX diffBits-40 0
XXX diffBits-41 0
XXX diffBits-42 0
XXX diffBits-43 0
XXX diffBits-44 0
XXX diffBits-45 111709
XXX diffBits-46 0
XXX diffBits-47 0
XXX diffBits-48 0
XXX diffBits-49 0
XXX diffBits-50 0
XXX diffBits-51 0
XXX diffBits-52 0
XXX diffBits-53 0
XXX diffBits-54 0
XXX diffBits-55 0
XXX diffBits-56 0
XXX diffBits-57 0
XXX diffBits-58 0
XXX diffBits-59 0
XXX diffBits-60 0
XXX diffBits-61 0
XXX diffBits-62 0
XXX diffBits-63 0
XXX diffBits-64 0
XXX diffBits-65 0
CPU 0 L1D next line prefetcher final stats

DRAM Statistics
 CHANNEL 0
 RQ ROW_BUFFER_HIT:       9706  ROW_BUFFER_MISS:      55009
 DBUS_CONGESTED:      26800
 WQ ROW_BUFFER_HIT:       3379  ROW_BUFFER_MISS:      18757  FULL:          0

 AVG_CONGESTED_CYCLE: 5

CPU 0 Branch Prediction Accuracy: 88.9174% MPKI: 21.6833 Average ROB Occupancy at Mispredict: 43.9716

XXX total_mispredicts 1084166
XXX total_target_mispredicts1 816523
XXX total_target_mispredicts2 89847
XXX total_direction_mispredicts 177796
XXX mispredict_on_btb_hit 596537
XXX NOT_BRANCH: 0
XXX BRANCH_DIRECT_JUMP: 10787
XXX BRANCH_INDIRECT: 29140
XXX BRANCH_CONDITIONAL: 0
XXX BRANCH_DIRECT_CALL: 11809
XXX BRANCH_INDIRECT_CALL: 56171
XXX BRANCH_RETURN: 488630
XXX BRANCH_OTHER: 0
Branch types
NOT_BRANCH: 40217093 80.4342%
BRANCH_DIRECT_JUMP: 774599 1.5492%
BRANCH_INDIRECT: 108806 0.217612%
BRANCH_CONDITIONAL: 6379327 12.7587%
BRANCH_DIRECT_CALL: 1048808 2.09762%
BRANCH_INDIRECT_CALL: 211109 0.422218%
BRANCH_RETURN: 1259924 2.51985%
BRANCH_OTHER: 0 0%

XXX BTB_reads: 13015121
XXX BTB_writes: 298550
XXX PageBTB_reads: 0
XXX PageBTB_writes: 0
XXX PageBTB_readsBeforeWrite: 0
XXX RegionBTB_reads: 0
XXX RegionBTB_writes: 0
XXX RegionBTB_readsBeforeWrite: 0
XXX BTB_4D_Hits 728931
XXX BTB_6D_Hits 989583
XXX BTB_8D_Hits 1107614
XXX BTB_12D_Hits 532160
XXX BTB_18D_Hits 589456
XXX BTB_25D_Hits 118398
XXX BTB_46D_Hits 38661
XXX BTB_Ret_Hits 1254939
XXX BTB_4D_Misses 3067
XXX BTB_6D_Misses 4464
XXX BTB_8D_Misses 21952
XXX BTB_12D_Misses 42881
XXX BTB_18D_Misses 25075
XXX BTB_25D_Misses 142203
XXX BTB_46D_Misses 53923
XXX BTB_Ret_Misses 4985
XXX Num_unique_branches 6511
total instructions: 0
wc,tif,trb
7,21,59
15,104,117
4,2,14
6,10,40
7,36,39
6,21,39
7,10,59
35,268,367
6,12,34
10,41,103
8,34,81
3330,41353,34266
20,155,157
21,95,159
13,30,217
38,300,549
3,1,14
3225,12894,51791
154,739,1507
7,24,37
4,7,38
154,702,2670
12,65,156
6,20,26
5,14,57
5,18,28
4,3,17
3,5,22
172,1345,1030
148,551,2910
61,920,505
3,4,12
155,848,2735
121,685,1967
45,367,584
35,508,53
2,0,4
7926,42294,132077
5,12,13
4,13,38
8,24,56
70,788,782
112,976,1451
6,14,53
11,60,81
5,7,59
126,893,1671
119,410,2533
6,12,24
113,467,1230
6,19,52
12,74,113
8,27,53
6,24,12
5,9,37
2,6,24
5,5,20
85,398,1195
50,658,369
61,498,955
5,21,20
5,9,62
10,31,159
9,43,66
12,73,89
8,25,55
16,59,181
16,91,204
6,13,37
6,19,36
4,2,16
9,16,94
4,0,23
5,9,36
65,220,943
149,797,2680
45,356,678
15,88,187
8570,74208,111528
8,23,57
21,94,243
9286,60797,140504
2761,43,19333
8,36,44
21,64,171
94,868,690
72,483,1047
8395,70194,81979
20,189,187
23,187,271
17,83,90
20,73,169
13,123,40
1759,3675,10736
130,715,2449
4,4,16
11,56,57
2812,16686,53225
12,112,68
5568,25037,80709
8,54,26
13,70,155
5,3,28
23,86,54
74,647,773
4,7,43
6,14,37
239,2284,1863
4,6,28
15,45,203
4,4,54
8,24,56
72,350,528
37,37,594
74,472,1148
31,200,295
8,30,50
5,11,39
3,1,14
285,3587,2725
30,163,339
66,209,545
152,1238,1136
21,128,275
15,59,192
5,10,48
7,33,40
43,274,377
5,13,31
3,8,20
7,13,56
6,15,46
7,39,16
5,7,37
8,25,55
6,30,32
5,9,53
7,20,35
6,9,37
6,22,38
14,66,164
8,13,67
15,149,70
8,40,40
22,116,250
7,17,38
3,2,18
15,56,198
13,100,69
5577,19513,119772
368,3239,4771
3,7,23
7,33,47
2085,20648,31015
9,37,87
4272,25801,79781
115,1166,1098
6,14,57
96,444,1650
3,8,19
6,9,43
5,8,51
14,109,55
7,22,51
10,17,149
104,495,1985
5572,19493,119726
5,6,39
8,37,79
14,46,166
6,17,27
8358,50100,133596
3044,19279,47689
207,2126,1805
6,4,47
12,93,73
6,11,45
5,7,37
75,560,1159
44,362,618
87,677,801
7,19,61
5,13,58
108,422,1492
3991,49802,30671
14,67,82
127,837,1438
178,1480,2774
174,382,2622
80,754,736
16,84,136
8,33,47
6,7,57
96,1014,1242
13,45,173
7,24,52
6,16,44
7,11,44
13,65,122
6,18,32
6,9,46
8,13,67
8598,104320,81627
5,10,31
18,107,193
1889,20083,9749
26,169,186
51,417,392
10,44,86
15,68,177
10,21,85
2720,19103,32703
11,62,95
16,117,125
700,5423,9806
13,40,153
6,9,99
11112,97102,80161
434,1636,7908
11104,58526,136301
34,117,594
36,158,498
2197,26179,23850
312,2253,3240
92,447,1528
24,136,259
8358,50104,133592
5,2,23
8,4,76
4,5,39
8487,108388,76009
65,540,979
13,58,91
64,1270,210
242,1552,4417
11829,96347,112201
15,58,198
11,81,35
3,1,15
13,71,148
7,26,49
14,93,158
6,22,53
514,4522,7867
64,547,939
6,7,29
35,238,422
6,6,38
6897,53981,87193
11,80,134
6,23,45
7,34,21
9,59,87
1334,11170,18036
11,84,94
4,3,42
20,87,59
7,18,51
7,22,99
10,49,69
9,61,90
8,32,48
621,5090,8523
23,134,183
89,862,1057
6,9,42
6,15,35
5,4,27
8112,76216,101174
5,2,30
220,1277,2026
7603,83516,82831
13,103,140
7,23,32
4,4,34
155,1019,888
5,2,30
86,423,1553
7,21,52
41,321,560
6,14,22
12,60,143
11,35,120
10,74,102
5,5,55
70,219,1305
129,865,2260
92,680,1190
16781,103755,164320
19,112,189
10,34,96
13,37,193
2662,96,50374
4,4,26
74,303,1474
7491,39350,125226
7,23,32
16,127,153
7,24,45
5,8,41
25,109,447
5,9,39
5,25,46
19522,153222,125588
4,3,21
42,290,292
10959,52353,189196
8,32,48
27,124,217
10,33,92
6,9,46
6,23,53
11,75,74
4,1,19
3,5,50
6,16,32
9,40,99
9,50,97
60,486,832
7,26,29
6,9,43
101,532,1353
7,25,36
15,66,69
18,117,137
8,41,39
13,90,97
5,6,19
1900,10417,36979
9,41,116
11,70,110
14937,84611,159134
4,7,53
4,2,27
10295,86852,72965
12,30,136
7,17,38
16,48,222
13,59,114
61,525,880
19,115,128
15,81,92
8,29,51
7,15,54
77,687,842
7,21,34
3,1,21
192,982,1866
8,30,50
21,173,209
17,122,159
22,174,154
30,135,345
5,16,21
50,364,296
2,2,16
8265,43879,137898
23,208,113
6,7,48
999,1208,4723
147,1258,965
45,305,331
149,842,2159
31,260,265
64,557,923
6,17,51
6397,60319,71998
4,8,41
2519,7640,40121
4,7,32
8240,71133,110051
7,10,65
8,32,48
39,171,476
12,28,225
25,142,160
76,348,1352
3186,11109,49549
7,16,57
5745,55046,50417
11,115,90
8378,71158,113180
17,120,137
10,52,117
37,192,451
8,25,55
18,77,229
5,9,34
10,55,121
8,30,50
12,98,125
7,16,45
7,15,40
18,61,123
13,57,166
14,72,172
21,210,107
309,2913,2370
20,192,104
7,13,63
67,860,695
62,482,1000
8,29,51
17,59,189
45,552,215
10,44,74
5,14,68
6,9,27
6,17,49
6,18,69
2499,135,47300
6,13,35
10,67,63
11,50,138
16,59,230
10,43,88
7,11,44
35,105,695
2,0,26
6,9,52
5,11,14
177,1367,2451
17,70,249
89,455,1439
14,91,145
340,1721,5633
90,536,1442
122,740,2190
2023,11111,39357
14,91,127
118,1140,1366
7,22,47
93,1102,457
7,26,35
10,29,93
6,9,55
52,234,395
12,86,75
11,41,82
4,10,45
77,508,1296
83,268,1145
83,360,1092
6,8,42
3575,35323,41062
22,138,273
91,840,1356
335,1655,5363
11,62,109
11,84,53
8,48,32
8,26,54
8,24,56
2,7,12
3833,39497,16855
33,192,485
1866,9322,26082
6,12,34
14,61,169
6768,50404,102152
44,398,575
16,91,179
53,197,1060
2442,8473,51653
11,35,167
14,97,115
423,3404,3595
5,7,34
6,22,53
8,25,55
70,815,731
8,28,52
5,7,39
73,543,1191
26,103,355
3492,16614,41091
1604,9158,28734
272,1744,3564
162,934,1834
13,49,144
4,2,23
230,1846,2358
100,480,1632
185,1280,620
73,535,1013
281,1705,2680
5570,19503,86336
10,52,80
22,218,80
475,4695,5341
47,284,413
30,249,201
2341,20999,29936
23,129,200
10,29,161
17,76,219
7,26,45
95,833,1173
521,4582,5685
6,6,65
6,13,51
200,1381,2215
4,12,50
160,713,2269
17,91,190
8313,25274,156415
12,70,126
77,453,863
8182,43753,136135
8444,88830,95702
136,739,1675
13748,89388,168032
