Initialize SIGNATURE TABLE
ST_SET: 1
ST_WAY: 256
ST_TAG_BIT: 16
ST_TAG_MASK: ffff

Initialize PATTERN TABLE
PT_SET: 512
PT_WAY: 4
SIG_DELTA_BIT: 7
C_SIG_BIT: 4
C_DELTA_BIT: 4

Initialize PREFETCH FILTER
FILTER_SET: 1024

*** ChampSim Multicore Out-of-Order Simulator ***

Warmup Instructions: 50000000
Simulation Instructions: 50000000
Number of CPUs: 1
LLC sets: 2048
LLC ways: 16
Off-chip DRAM Size: 4096 MB Channels: 1 Width: 64-bit Data Rate: 3200 MT/s

CPU 0 runs /ChampSim-master-BTBX/dpc3_traces/server_016.champsimtrace.xz
Basic BTB sets: 4096 ways: 4 indirect buffer size: 4096 RAS size: 64
CPU 0 L1D next line prefetcher
Heartbeat CPU 0 instructions: 10000000 cycles: 3496754 heartbeat IPC: 2.8598 cumulative IPC: 2.8598 (Simulation time: 0 hr 0 min 20 sec) 
Heartbeat CPU 0 instructions: 20000000 cycles: 6994142 heartbeat IPC: 2.85928 cumulative IPC: 2.85954 (Simulation time: 0 hr 0 min 38 sec) 
Heartbeat CPU 0 instructions: 30000001 cycles: 10486628 heartbeat IPC: 2.86329 cumulative IPC: 2.86079 (Simulation time: 0 hr 0 min 58 sec) 
Heartbeat CPU 0 instructions: 40000000 cycles: 13784660 heartbeat IPC: 3.03211 cumulative IPC: 2.90178 (Simulation time: 0 hr 1 min 9 sec) 
Heartbeat CPU 0 instructions: 50000002 cycles: 17020125 heartbeat IPC: 3.09075 cumulative IPC: 2.9377 (Simulation time: 0 hr 1 min 19 sec) 

Warmup complete CPU 0 instructions: 50000002 cycles: 17020125 (Simulation time: 0 hr 1 min 19 sec) 

Heartbeat CPU 0 instructions: 60000000 cycles: 26178470 heartbeat IPC: 1.0919 cumulative IPC: 1.0919 (Simulation time: 0 hr 1 min 31 sec) 
Heartbeat CPU 0 instructions: 70000000 cycles: 39691908 heartbeat IPC: 0.740004 cumulative IPC: 0.882154 (Simulation time: 0 hr 1 min 51 sec) 
Heartbeat CPU 0 instructions: 80000000 cycles: 53490363 heartbeat IPC: 0.724719 cumulative IPC: 0.822589 (Simulation time: 0 hr 2 min 9 sec) 
Heartbeat CPU 0 instructions: 90000000 cycles: 66735887 heartbeat IPC: 0.754972 cumulative IPC: 0.804574 (Simulation time: 0 hr 2 min 27 sec) 
Heartbeat CPU 0 instructions: 100000000 cycles: 80364765 heartbeat IPC: 0.733736 cumulative IPC: 0.789333 (Simulation time: 0 hr 2 min 45 sec) 
Finished CPU 0 instructions: 50000002 cycles: 63344641 cumulative IPC: 0.789333 (Simulation time: 0 hr 2 min 45 sec) 

ChampSim completed all CPUs

Region of Interest Statistics

CPU 0
XXX cumulative-IPC 0.789333
XXX instructions 50000002
XXX cycles 63344641
L1D TOTAL     ACCESS:   19994012  HIT:   18724102  MISS:    1269910
L1D LOAD      ACCESS:    7494658  HIT:    6932634  MISS:     562024
L1D RFO       ACCESS:    5275340  HIT:    5053986  MISS:     221354
L1D PREFETCH  ACCESS:    7224014  HIT:    6737482  MISS:     486532
L1D WRITEBACK ACCESS:          0  HIT:          0  MISS:          0
L1D PREFETCH  REQUESTED:    7541132  ISSUED:    7446993
XXX L1D-USEFUL 125365
XXX L1D-USELESS 361183
L1D AVERAGE MISS LATENCY: 24.6712 cycles
L1I TOTAL     ACCESS:   13485235  HIT:   10929316  MISS:    2555919
L1I LOAD      ACCESS:    9594054  HIT:    8246392  MISS:    1347662
L1I RFO       ACCESS:          0  HIT:          0  MISS:          0
L1I PREFETCH  ACCESS:    3891181  HIT:    2682924  MISS:    1208257
L1I WRITEBACK ACCESS:          0  HIT:          0  MISS:          0
L1I PREFETCH  REQUESTED:    5967841  ISSUED:    5967841
XXX L1I-USEFUL 773084
XXX L1I-USELESS 435146
L1I AVERAGE MISS LATENCY: 13.3517 cycles
L2C TOTAL     ACCESS:    5355395  HIT:    4496116  MISS:     859279
L2C LOAD      ACCESS:    1120048  HIT:     918184  MISS:     201864
L2C RFO       ACCESS:     219360  HIT:     139784  MISS:      79576
L2C PREFETCH  ACCESS:    3587532  HIT:    3012195  MISS:     575337
L2C WRITEBACK ACCESS:     428455  HIT:     425953  MISS:       2502
L2C PREFETCH  REQUESTED:    3451919  ISSUED:    3451447
XXX L2C-USEFUL 61583
XXX L2C-USELESS 513018
L2C AVERAGE MISS LATENCY: 37.3802 cycles
LLC TOTAL     ACCESS:    1729356  HIT:    1693082  MISS:      36274
LLC LOAD      ACCESS:     201700  HIT:     197530  MISS:       4170
LLC RFO       ACCESS:      79574  HIT:      66053  MISS:      13521
LLC PREFETCH  ACCESS:    1306018  HIT:    1287511  MISS:      18507
LLC WRITEBACK ACCESS:     142064  HIT:     141988  MISS:         76
LLC PREFETCH  REQUESTED:          0  ISSUED:          0
XXX LLC-USEFUL 1765
XXX LLC-USELESS 16175
LLC AVERAGE MISS LATENCY: 164.518 cycles
Major fault: 0 Minor fault: 2373
XXX disp-0 1610602
XXX disp-1 0
XXX disp-2 1478
XXX disp-3 372183
XXX disp-4 849101
XXX disp-5 2859434
XXX disp-6 1126005
XXX disp-7 523246
XXX disp-8 583813
XXX disp-9 303749
XXX disp-10 209299
XXX disp-11 166787
XXX disp-12 83263
XXX disp-13 92196
XXX disp-14 84417
XXX disp-15 97748
XXX disp-16 42893
XXX disp-17 66454
XXX disp-18 98714
XXX disp-19 89607
XXX disp-20 97385
XXX disp-21 193531
XXX disp-22 123304
XXX disp-23 238396
XXX disp-24 112390
XXX disp-25 0
XXX disp-26 0
XXX disp-27 0
XXX disp-28 0
XXX disp-29 0
XXX disp-30 0
XXX disp-31 0
XXX disp-32 0
XXX disp-33 0
XXX disp-34 0
XXX disp-35 0
XXX disp-36 0
XXX disp-37 0
XXX disp-38 0
XXX disp-39 0
XXX disp-40 0
XXX disp-41 0
XXX disp-42 0
XXX disp-43 0
XXX disp-44 0
XXX disp-45 0
XXX disp-46 239874
XXX disp-47 0
XXX disp-48 0
XXX disp-49 0
XXX disp-50 0
XXX disp-51 0
XXX disp-52 0
XXX disp-53 0
XXX disp-54 0
XXX disp-55 0
XXX disp-56 0
XXX disp-57 0
XXX disp-58 0
XXX disp-59 0
XXX disp-60 0
XXX disp-61 0
XXX disp-62 0
XXX disp-63 1
XXX disp-64 0
XXX disp-65 0
XXX diffBits-0 1610602
XXX diffBits-1 996
XXX diffBits-2 151151
XXX diffBits-3 513720
XXX diffBits-4 568903
XXX diffBits-5 2727398
XXX diffBits-6 586690
XXX diffBits-7 859730
XXX diffBits-8 382365
XXX diffBits-9 441396
XXX diffBits-10 397524
XXX diffBits-11 231267
XXX diffBits-12 134509
XXX diffBits-13 121763
XXX diffBits-14 39511
XXX diffBits-15 70141
XXX diffBits-16 97596
XXX diffBits-17 92131
XXX diffBits-18 57297
XXX diffBits-19 79828
XXX diffBits-20 214411
XXX diffBits-21 184458
XXX diffBits-22 274901
XXX diffBits-23 0
XXX diffBits-24 0
XXX diffBits-25 187707
XXX diffBits-26 0
XXX diffBits-27 0
XXX diffBits-28 0
XXX diffBits-29 0
XXX diffBits-30 0
XXX diffBits-31 0
XXX diffBits-32 0
XXX diffBits-33 0
XXX diffBits-34 0
XXX diffBits-35 0
XXX diffBits-36 0
XXX diffBits-37 0
XXX diffBits-38 0
XXX diffBits-39 0
XXX diffBits-40 0
XXX diffBits-41 0
XXX diffBits-42 0
XXX diffBits-43 0
XXX diffBits-44 0
XXX diffBits-45 239874
XXX diffBits-46 0
XXX diffBits-47 0
XXX diffBits-48 0
XXX diffBits-49 0
XXX diffBits-50 0
XXX diffBits-51 0
XXX diffBits-52 0
XXX diffBits-53 0
XXX diffBits-54 0
XXX diffBits-55 0
XXX diffBits-56 0
XXX diffBits-57 0
XXX diffBits-58 0
XXX diffBits-59 0
XXX diffBits-60 0
XXX diffBits-61 0
XXX diffBits-62 1
XXX diffBits-63 0
XXX diffBits-64 0
XXX diffBits-65 0
CPU 0 L1D next line prefetcher final stats

DRAM Statistics
 CHANNEL 0
 RQ ROW_BUFFER_HIT:      11086  ROW_BUFFER_MISS:      25110
 DBUS_CONGESTED:      21380
 WQ ROW_BUFFER_HIT:       1449  ROW_BUFFER_MISS:      14934  FULL:          0

 AVG_CONGESTED_CYCLE: 5

CPU 0 Branch Prediction Accuracy: 83.7136% MPKI: 29.5635 Average ROB Occupancy at Mispredict: 37.4112

XXX total_mispredicts 1478173
XXX total_target_mispredicts1 1080187
XXX total_target_mispredicts2 253554
XXX total_direction_mispredicts 144432
XXX mispredict_on_btb_hit 446319
XXX NOT_BRANCH: 0
XXX BRANCH_DIRECT_JUMP: 14920
XXX BRANCH_INDIRECT: 14050
XXX BRANCH_CONDITIONAL: 0
XXX BRANCH_DIRECT_CALL: 9953
XXX BRANCH_INDIRECT_CALL: 12608
XXX BRANCH_RETURN: 394788
XXX BRANCH_OTHER: 0
Branch types
NOT_BRANCH: 40923888 81.8478%
BRANCH_DIRECT_JUMP: 487045 0.97409%
BRANCH_INDIRECT: 169158 0.338316%
BRANCH_CONDITIONAL: 6640823 13.2816%
BRANCH_DIRECT_CALL: 755586 1.51117%
BRANCH_INDIRECT_CALL: 133962 0.267924%
BRANCH_RETURN: 889566 1.77913%
BRANCH_OTHER: 0 0%

XXX BTB_reads: 17727296
XXX BTB_writes: 877595
XXX PageBTB_reads: 0
XXX PageBTB_writes: 0
XXX PageBTB_readsBeforeWrite: 0
XXX RegionBTB_reads: 0
XXX RegionBTB_writes: 0
XXX RegionBTB_readsBeforeWrite: 0
XXX BTB_4D_Hits 649475
XXX BTB_6D_Hits 1320816
XXX BTB_8D_Hits 785782
XXX BTB_12D_Hits 344498
XXX BTB_18D_Hits 180586
XXX BTB_25D_Hits 147131
XXX BTB_46D_Hits 81931
XXX BTB_Ret_Hits 837729
XXX BTB_4D_Misses 35736
XXX BTB_6D_Misses 30685
XXX BTB_8D_Misses 87867
XXX BTB_12D_Misses 92507
XXX BTB_18D_Misses 80743
XXX BTB_25D_Misses 175462
XXX BTB_46D_Misses 322758
XXX BTB_Ret_Misses 51837
XXX Num_unique_branches 10412
total instructions: 0
wc,tif,trb
3187,7596,71831
2963,16851,33857
1923,12412,18715
2129,15525,28524
1277,6820,24353
1446,12440,14868
3282,18209,44873
4333,18173,78069
3559,25740,40169
3011,21821,37670
1988,16674,17126
8747,48899,94384
20,94,258
1696,10289,25037
564,2376,11005
1660,8222,24020
947,8733,11558
498,1990,10340
3168,12864,63262
654,5667,10019
5207,36314,48300
26,155,343
4767,29740,42623
3103,13349,50492
3812,16658,63704
5125,38202,36883
2033,15517,14965
1962,7862,40994
2263,7187,46243
307,1966,5669
4734,22014,79896
1701,14551,24974
2067,15949,19642
964,6363,14052
3756,18245,56721
1069,8417,12027
2972,9438,61779
5630,27911,84811
2624,10411,47058
1593,3496,36209
11,55,88
1427,13380,11036
496,1813,10443
1452,7244,28975
2737,16429,37745
4387,31310,20863
894,4664,11626
2639,8634,55177
3756,15940,53952
3773,21270,44735
8,33,82
5255,29251,56825
3439,9611,57321
7,23,38
2492,14904,24909
2892,11561,58065
2650,17765,39101
258,1291,5001
1868,8880,33032
6,16,20
790,1183,18435
5659,24742,70501
5655,34517,67860
5,3,59
1703,6745,29343
6577,39554,65460
5291,23695,66564
2467,17223,36094
1938,14348,24324
3016,18526,35962
2243,11232,38917
3642,27216,40927
1975,9110,36091
2497,14604,27728
1327,6109,26810
945,8322,12330
3575,12518,59591
4098,26535,37616
2936,13772,50159
6774,33817,83563
2248,22280,25587
595,2755,10249
4220,13026,84899
674,7242,3643
2832,16724,45674
10,38,92
1247,5547,24137
6545,35136,71380
3132,19212,28240
1535,9597,11620
5264,35892,45156
1462,3874,29626
1822,7184,34970
1465,10211,23359
3238,16049,56749
5546,30656,60937
2938,11025,52144
2960,18359,20521
5126,29908,75845
1893,7657,23752
2059,6709,38784
4405,21824,60433
1033,1561,24144
9753,51726,88721
495,1731,10590
1182,5472,23496
6931,50203,74585
3549,12846,51127
2506,12341,46121
5746,37951,53825
2400,11451,48257
5486,30925,77328
1265,8116,23351
5723,29087,49163
386,3892,5460
690,3167,13515
1463,4649,28861
4229,36463,39654
2053,6579,34344
5131,31539,29256
4138,25160,45238
5095,25400,67668
926,4020,18276
4399,33090,37923
1958,9777,31592
1543,11521,18959
1450,5277,18830
1785,12575,26092
4378,21546,78373
1744,9425,22895
1289,10386,8705
6366,52445,29609
4841,36191,40524
906,1987,20448
7,14,59
1694,11489,24364
498,3457,8913
747,3512,7721
4914,31955,38656
668,1817,11853
565,5026,7192
393,36,9597
790,3755,14095
2137,4750,47535
2600,14416,30798
4612,31588,52664
973,3929,20270
1104,6208,10253
5032,31087,36292
3095,19900,30729
9026,47714,106015
6475,34659,74562
21,186,205
1781,12044,25693
69,459,1074
1930,7716,34725
2954,14441,40003
24,112,356
2697,12338,42363
2472,18125,28477
10,69,61
957,4276,19533
2608,14032,32746
2332,9146,41463
672,1850,12986
20,96,235
923,5659,17134
1451,8687,23166
5372,32983,52595
972,5158,16040
1339,12149,10712
1036,3618,22203
5142,26991,49302
30,94,468
18,58,272
1312,9709,10119
1579,4899,34481
523,3798,8930
493,4,12275
3766,18219,56163
213,1090,3993
2111,14941,33991
6,12,24
502,1762,10626
3532,21194,27232
1048,9450,10867
499,2911,2674
1150,12300,11451
2118,11109,37841
3290,17920,55443
11,18,189
5163,34969,46808
4383,17158,53008
7,14,57
739,3669,11746
1735,9711,14602
3728,27669,27233
2527,18009,27248
3106,28845,17446
1242,8082,22724
1038,3840,21016
3504,18755,45967
17,109,108
2395,18988,22949
1871,12149,28058
1342,11442,14462
975,1959,22270
1665,9918,13208
7,28,45
5921,45144,35680
499,2503,9834
8,25,91
344,2292,5176
2611,18154,27345
805,2452,17553
939,7052,12570
5868,48383,30953
407,1203,8054
878,7497,12746
270,806,5860
1701,15254,16981
8,25,55
1162,5488,22491
4002,22673,57332
1205,3292,23811
2471,13963,16801
1287,5731,23942
3506,12650,55644
778,2007,17143
5032,23850,60365
14,45,129
317,1264,6547
3677,18570,49221
3141,20062,35570
839,6214,14577
5086,26528,61058
3720,5883,74970
3163,21342,38100
1889,11859,26592
4703,15034,99413
1426,12318,18582
178,520,2823
2216,11030,18409
602,5612,5952
5534,41271,34056
2665,18951,29877
4267,23385,38931
736,3809,13094
2435,25112,29787
2933,8176,56693
115,439,2226
1773,8501,25592
1256,9578,13732
5124,23814,63192
12,29,136
1695,6801,35344
6702,36565,69063
2155,11747,29576
16,81,159
1868,3111,43319
2005,8016,41955
621,2484,12870
1140,7047,13353
13,48,171
1964,7350,23464
2405,11256,37979
5,14,37
4544,16895,71610
2927,23865,31070
3009,24079,17032
7,36,40
1063,4418,22037
546,5755,7368
384,1690,5508
4986,28705,60897
1488,10548,16054
2369,8851,45934
2674,16823,36149
720,4448,4873
2202,10386,40770
2986,13715,51923
401,4182,2243
898,3638,14364
1997,3989,45842
1543,6646,28409
7,22,33
6444,31349,68965
2821,23629,32185
6452,29045,83220
4007,28711,26286
2568,11632,43230
280,1607,177
511,3038,7124
2429,11628,36525
4319,21340,41740
1481,15556,5349
1094,7373,15313
977,7695,16282
1954,11511,18942
1238,3337,26069
272,1477,5203
2298,10878,42272
1960,10949,22783
4435,29896,26865
2432,4646,55576
2888,24071,25597
976,2001,22245
913,7733,12103
28,201,212
637,1789,13936
2234,10640,22220
1581,13066,5046
1296,7331,17523
1487,8360,16434
2599,18051,17721
647,4399,11500
3344,12731,62291
2452,13602,27654
3731,19992,66081
1829,11729,28776
6650,47370,61672
1164,9019,11188
9486,59905,61118
7565,48264,62872
3366,9212,71830
496,1980,10330
3600,27146,37362
870,7459,13951
1033,4134,21571
14,121,109
5847,34624,53128
4301,24712,40840
1446,6138,23518
3054,16262,36166
6021,42948,32863
3458,10243,72001
2058,13839,30169
1110,4930,22701
1730,15203,12607
5493,34676,69582
2399,7477,44038
3870,17533,65066
3978,27250,32259
2297,12654,28523
4045,21485,54171
1784,6418,33270
5832,42620,36725
4110,22377,66447
3131,14958,47535
2784,12221,56899
1677,8467,28286
5268,20658,80292
8,22,58
2141,16558,24288
5059,26747,45289
1671,6436,32249
6450,49788,48204
2337,15594,30781
2325,14651,35251
1749,12094,14653
2105,14635,22107
509,3007,9460
120,745,1039
1215,3866,26403
4181,25180,63801
4488,34095,24832
2125,8180,31171
10,85,105
3710,16101,43247
2254,11471,33551
3222,15557,60223
3669,28581,38665
1265,9576,15277
2152,13982,19471
2328,17300,20499
1611,9785,16190
14,51,131
2997,20107,31644
4423,21829,61157
2527,12590,42259
5737,36741,60022
1853,6926,31564
7678,32817,101276
560,1141,12759
3017,24405,23256
57,387,582
9,25,94
4687,22203,66256
2277,8868,44032
2284,5973,39415
3554,13313,65663
5140,29193,71558
1666,5336,29679
8245,48648,77047
1076,4064,22518
5343,12796,89203
2702,21750,16460
6114,41477,31139
961,5263,18644
1980,15119,25305
1550,8991,23696
7100,31333,99141
5654,41526,55904
1038,6803,3958
1645,6221,32335
3298,16852,61208
913,7302,9771
1081,2677,24228
7251,47676,73663
504,1790,10614
948,7372,12132
2024,14211,20771
7005,39187,88150
5480,33232,57177
7101,44857,67932
2494,11478,30390
1376,10711,7054
386,3189,6338
961,8448,8275
3793,14514,64301
5,7,33
2518,17776,14550
2606,17473,17279
6673,46081,53448
489,1188,9947
3930,35560,17774
1898,11660,34264
31,119,334
3158,23031,24824
7,15,61
12,47,91
2530,19810,23742
1070,6582,14612
841,5154,8835
3550,16594,44950
970,4837,19313
406,2411,6431
2921,13073,56542
3820,16371,28296
2007,12951,32742
3280,22964,36564
4020,26602,30024
2735,23478,26855
3008,16345,39956
7304,39416,78023
8531,34517,123688
2373,13026,40701
6040,22450,74637
408,3744,5096
3219,21438,46164
5798,38495,64250
3520,22350,48818
2437,6908,53808
3090,18071,38165
9,26,79
2876,21594,32504
2460,16019,35985
1398,10300,11462
2543,19104,28353
10195,46415,116841
5321,29481,57102
395,6029,3640
1865,12984,26533
4356,13684,80814
10874,59658,89901
19,92,170
1098,2516,24830
7075,27451,75947
7,11,65
2659,15335,17641
12,53,127
1046,4198,21829
5798,31251,59768
1955,5087,38568
1254,9363,9083
3596,23670,46300
2000,6009,43885
11867,68785,99304
4913,34981,27223
1509,6754,27973
4036,24125,63022
12,35,75
1035,9763,15967
10792,61790,88088
4572,25527,65731
981,7752,16554
273,2889,1822
2513,8914,53830
5,9,30
4820,35236,40385
4696,20534,69700
103,964,1003
480,2145,9799
5534,40374,67919
1767,6709,37421
3275,21228,46638
3982,25029,54791
14,45,199
1307,4940,27531
1277,10179,13444
1230,4685,25829
3110,21702,26968
3752,24909,45195
2054,15654,32452
26,185,177
1717,9490,30201
1809,10700,31093
14,52,166
2907,21133,41148
6517,30250,106071
5473,25950,72608
1936,20128,24868
