Initialize SIGNATURE TABLE
ST_SET: 1
ST_WAY: 256
ST_TAG_BIT: 16
ST_TAG_MASK: ffff

Initialize PATTERN TABLE
PT_SET: 512
PT_WAY: 4
SIG_DELTA_BIT: 7
C_SIG_BIT: 4
C_DELTA_BIT: 4

Initialize PREFETCH FILTER
FILTER_SET: 1024

*** ChampSim Multicore Out-of-Order Simulator ***

Warmup Instructions: 50000000
Simulation Instructions: 50000000
Number of CPUs: 1
LLC sets: 2048
LLC ways: 16
Off-chip DRAM Size: 4096 MB Channels: 1 Width: 64-bit Data Rate: 3200 MT/s

CPU 0 runs /ChampSim-master-BTBX/dpc3_traces/server_035.champsimtrace.xz
Basic BTB sets: 4096 ways: 4 indirect buffer size: 4096 RAS size: 64
CPU 0 L1D next line prefetcher
Heartbeat CPU 0 instructions: 10000001 cycles: 3342282 heartbeat IPC: 2.99197 cumulative IPC: 2.99197 (Simulation time: 0 hr 0 min 19 sec) 
Heartbeat CPU 0 instructions: 20000000 cycles: 6683515 heartbeat IPC: 2.99291 cumulative IPC: 2.99244 (Simulation time: 0 hr 0 min 38 sec) 
Heartbeat CPU 0 instructions: 30000000 cycles: 10021870 heartbeat IPC: 2.99549 cumulative IPC: 2.99345 (Simulation time: 0 hr 0 min 56 sec) 
Heartbeat CPU 0 instructions: 40000000 cycles: 13365482 heartbeat IPC: 2.99078 cumulative IPC: 2.99278 (Simulation time: 0 hr 1 min 14 sec) 
Heartbeat CPU 0 instructions: 50000003 cycles: 16706224 heartbeat IPC: 2.99335 cumulative IPC: 2.9929 (Simulation time: 0 hr 1 min 33 sec) 

Warmup complete CPU 0 instructions: 50000003 cycles: 16706224 (Simulation time: 0 hr 1 min 33 sec) 

Heartbeat CPU 0 instructions: 60000002 cycles: 30271456 heartbeat IPC: 0.737179 cumulative IPC: 0.737179 (Simulation time: 0 hr 1 min 51 sec) 
Heartbeat CPU 0 instructions: 70000003 cycles: 43568725 heartbeat IPC: 0.752034 cumulative IPC: 0.744532 (Simulation time: 0 hr 2 min 9 sec) 
Heartbeat CPU 0 instructions: 80000003 cycles: 57014051 heartbeat IPC: 0.743753 cumulative IPC: 0.744272 (Simulation time: 0 hr 2 min 27 sec) 
Heartbeat CPU 0 instructions: 90000003 cycles: 69823615 heartbeat IPC: 0.780667 cumulative IPC: 0.753049 (Simulation time: 0 hr 2 min 44 sec) 
Heartbeat CPU 0 instructions: 100000002 cycles: 83256546 heartbeat IPC: 0.744439 cumulative IPC: 0.751311 (Simulation time: 0 hr 3 min 3 sec) 
Finished CPU 0 instructions: 50000003 cycles: 66550323 cumulative IPC: 0.751311 (Simulation time: 0 hr 3 min 3 sec) 

ChampSim completed all CPUs

Region of Interest Statistics

CPU 0
XXX cumulative-IPC 0.751311
XXX instructions 50000003
XXX cycles 66550323
L1D TOTAL     ACCESS:   20560563  HIT:   19054577  MISS:    1505986
L1D LOAD      ACCESS:    7238320  HIT:    6547829  MISS:     690491
L1D RFO       ACCESS:    6260002  HIT:    6105732  MISS:     154270
L1D PREFETCH  ACCESS:    7062241  HIT:    6401016  MISS:     661225
L1D WRITEBACK ACCESS:          0  HIT:          0  MISS:          0
L1D PREFETCH  REQUESTED:    7287526  ISSUED:    7209199
XXX L1D-USEFUL 147373
XXX L1D-USELESS 513857
L1D AVERAGE MISS LATENCY: 42.6659 cycles
L1I TOTAL     ACCESS:   15048838  HIT:   10935316  MISS:    4113522
L1I LOAD      ACCESS:    9489799  HIT:    7266644  MISS:    2223155
L1I RFO       ACCESS:          0  HIT:          0  MISS:          0
L1I PREFETCH  ACCESS:    5559039  HIT:    3668672  MISS:    1890367
L1I WRITEBACK ACCESS:          0  HIT:          0  MISS:          0
L1I PREFETCH  REQUESTED:    8863178  ISSUED:    8863178
XXX L1I-USEFUL 1173071
XXX L1I-USELESS 717292
L1I AVERAGE MISS LATENCY: 12.8439 cycles
L2C TOTAL     ACCESS:    8234747  HIT:    7902880  MISS:     331867
L2C LOAD      ACCESS:    2403430  HIT:    2258005  MISS:     145425
L2C RFO       ACCESS:     152876  HIT:     132017  MISS:      20859
L2C PREFETCH  ACCESS:    5313515  HIT:    5149177  MISS:     164338
L2C WRITEBACK ACCESS:     364926  HIT:     363681  MISS:       1245
L2C PREFETCH  REQUESTED:    6116444  ISSUED:    6115419
XXX L2C-USEFUL 16901
XXX L2C-USELESS 146774
L2C AVERAGE MISS LATENCY: 141.386 cycles
LLC TOTAL     ACCESS:    1690049  HIT:    1401688  MISS:     288361
LLC LOAD      ACCESS:     144674  HIT:      61407  MISS:      83267
LLC RFO       ACCESS:      20858  HIT:      10741  MISS:      10117
LLC PREFETCH  ACCESS:    1422783  HIT:    1228852  MISS:     193931
LLC WRITEBACK ACCESS:     101734  HIT:     100688  MISS:       1046
LLC PREFETCH  REQUESTED:          0  ISSUED:          0
XXX LLC-USEFUL 34794
XXX LLC-USELESS 158630
LLC AVERAGE MISS LATENCY: 204.534 cycles
Major fault: 0 Minor fault: 5548
XXX disp-0 2547661
XXX disp-1 0
XXX disp-2 2784
XXX disp-3 311952
XXX disp-4 1203786
XXX disp-5 1164977
XXX disp-6 1136636
XXX disp-7 894442
XXX disp-8 738048
XXX disp-9 569681
XXX disp-10 356718
XXX disp-11 285637
XXX disp-12 154012
XXX disp-13 182912
XXX disp-14 178086
XXX disp-15 89269
XXX disp-16 136853
XXX disp-17 252541
XXX disp-18 270415
XXX disp-19 58886
XXX disp-20 361194
XXX disp-21 94656
XXX disp-22 5587
XXX disp-23 195166
XXX disp-24 0
XXX disp-25 0
XXX disp-26 0
XXX disp-27 0
XXX disp-28 0
XXX disp-29 0
XXX disp-30 0
XXX disp-31 0
XXX disp-32 0
XXX disp-33 0
XXX disp-34 0
XXX disp-35 0
XXX disp-36 0
XXX disp-37 0
XXX disp-38 0
XXX disp-39 0
XXX disp-40 0
XXX disp-41 0
XXX disp-42 0
XXX disp-43 0
XXX disp-44 0
XXX disp-45 0
XXX disp-46 111497
XXX disp-47 0
XXX disp-48 0
XXX disp-49 0
XXX disp-50 0
XXX disp-51 0
XXX disp-52 0
XXX disp-53 0
XXX disp-54 0
XXX disp-55 0
XXX disp-56 0
XXX disp-57 0
XXX disp-58 0
XXX disp-59 0
XXX disp-60 0
XXX disp-61 0
XXX disp-62 0
XXX disp-63 1
XXX disp-64 0
XXX disp-65 0
XXX diffBits-0 2547661
XXX diffBits-1 0
XXX diffBits-2 146693
XXX diffBits-3 444191
XXX diffBits-4 882060
XXX diffBits-5 1074892
XXX diffBits-6 887802
XXX diffBits-7 700700
XXX diffBits-8 813495
XXX diffBits-9 774939
XXX diffBits-10 412676
XXX diffBits-11 314544
XXX diffBits-12 266606
XXX diffBits-13 223132
XXX diffBits-14 116993
XXX diffBits-15 68355
XXX diffBits-16 254075
XXX diffBits-17 76932
XXX diffBits-18 142075
XXX diffBits-19 526751
XXX diffBits-20 216322
XXX diffBits-21 105833
XXX diffBits-22 195172
XXX diffBits-23 0
XXX diffBits-24 0
XXX diffBits-25 0
XXX diffBits-26 0
XXX diffBits-27 0
XXX diffBits-28 0
XXX diffBits-29 0
XXX diffBits-30 0
XXX diffBits-31 0
XXX diffBits-32 0
XXX diffBits-33 0
XXX diffBits-34 0
XXX diffBits-35 0
XXX diffBits-36 0
XXX diffBits-37 0
XXX diffBits-38 0
XXX diffBits-39 0
XXX diffBits-40 0
XXX diffBits-41 0
XXX diffBits-42 0
XXX diffBits-43 0
XXX diffBits-44 0
XXX diffBits-45 111497
XXX diffBits-46 0
XXX diffBits-47 0
XXX diffBits-48 0
XXX diffBits-49 0
XXX diffBits-50 0
XXX diffBits-51 0
XXX diffBits-52 0
XXX diffBits-53 0
XXX diffBits-54 0
XXX diffBits-55 0
XXX diffBits-56 0
XXX diffBits-57 0
XXX diffBits-58 0
XXX diffBits-59 0
XXX diffBits-60 0
XXX diffBits-61 0
XXX diffBits-62 1
XXX diffBits-63 0
XXX diffBits-64 0
XXX diffBits-65 0
CPU 0 L1D next line prefetcher final stats

DRAM Statistics
 CHANNEL 0
 RQ ROW_BUFFER_HIT:      71100  ROW_BUFFER_MISS:     216205
 DBUS_CONGESTED:     165190
 WQ ROW_BUFFER_HIT:      17444  ROW_BUFFER_MISS:      73734  FULL:          0

 AVG_CONGESTED_CYCLE: 5

CPU 0 Branch Prediction Accuracy: 88.7809% MPKI: 21.838 Average ROB Occupancy at Mispredict: 46.4589

XXX total_mispredicts 1091901
XXX total_target_mispredicts1 817575
XXX total_target_mispredicts2 92786
XXX total_direction_mispredicts 181540
XXX mispredict_on_btb_hit 603245
XXX NOT_BRANCH: 0
XXX BRANCH_DIRECT_JUMP: 11552
XXX BRANCH_INDIRECT: 29091
XXX BRANCH_CONDITIONAL: 0
XXX BRANCH_DIRECT_CALL: 14305
XXX BRANCH_INDIRECT_CALL: 54833
XXX BRANCH_RETURN: 493464
XXX BRANCH_OTHER: 0
Branch types
NOT_BRANCH: 40267206 80.5344%
BRANCH_DIRECT_JUMP: 771899 1.5438%
BRANCH_INDIRECT: 108179 0.216358%
BRANCH_CONDITIONAL: 6307160 12.6143%
BRANCH_DIRECT_CALL: 1060892 2.12178%
BRANCH_INDIRECT_CALL: 211719 0.423438%
BRANCH_RETURN: 1272633 2.54527%
BRANCH_OTHER: 0 0%

XXX BTB_reads: 13113252
XXX BTB_writes: 296168
XXX PageBTB_reads: 0
XXX PageBTB_writes: 0
XXX PageBTB_readsBeforeWrite: 0
XXX RegionBTB_reads: 0
XXX RegionBTB_writes: 0
XXX RegionBTB_readsBeforeWrite: 0
XXX BTB_4D_Hits 735019
XXX BTB_6D_Hits 965921
XXX BTB_8D_Hits 1084256
XXX BTB_12D_Hits 545239
XXX BTB_18D_Hits 598317
XXX BTB_25D_Hits 119817
XXX BTB_46D_Hits 37458
XXX BTB_Ret_Hits 1267166
XXX BTB_4D_Misses 2910
XXX BTB_6D_Misses 6009
XXX BTB_8D_Misses 22707
XXX BTB_12D_Misses 46986
XXX BTB_18D_Misses 26027
XXX BTB_25D_Misses 131436
XXX BTB_46D_Misses 54626
XXX BTB_Ret_Misses 5467
XXX Num_unique_branches 6238
total instructions: 0
wc,tif,trb
7,21,59
12,70,102
2,0,4
6,10,40
6,27,39
6,21,39
7,10,59
13,36,91
6,12,34
7,23,64
8,34,81
2891,39354,31292
15,125,112
13,70,112
8,15,100
7,17,63
5,13,46
2860,11153,51321
37,206,317
8,24,56
3,4,16
75,375,1216
13,68,178
5,12,15
4,13,39
5,17,29
4,3,17
3,5,22
7,37,43
23,64,410
18,208,142
3,4,12
56,275,873
26,146,413
19,82,255
16,169,45
2,0,4
8206,43747,136736
4,7,9
4,13,38
7,17,56
16,148,84
15,98,162
6,14,53
12,103,75
4,1,40
22,233,111
21,67,426
6,12,24
24,76,236
6,19,52
9,45,79
8,26,54
5,13,12
5,9,37
1,0,11
4,5,11
30,157,329
17,194,122
5,22,31
6,22,28
4,6,40
10,33,177
10,63,73
12,91,89
8,28,52
15,57,170
10,47,120
4,4,17
8,44,47
4,2,16
10,17,104
4,0,23
4,6,14
16,52,180
24,146,344
20,124,273
8,35,65
8371,76660,107186
7,23,38
23,109,284
10865,68852,161276
2778,43,19452
8,41,39
14,43,125
12,84,75
20,74,246
8109,68253,79312
8,55,51
11,58,106
15,71,140
9,25,90
10,73,31
1534,1921,9224
18,64,268
3,0,16
9,40,51
2792,16710,52989
7,35,20
5570,25046,80753
7,35,20
13,59,146
4,2,22
7,22,54
9,63,62
8,31,95
6,14,37
538,5875,4301
4,6,28
12,24,161
5,5,57
8,24,56
19,151,132
13,33,142
14,53,143
29,202,239
6,26,34
7,46,54
3,1,14
2931,4677,27863
25,154,322
9,38,89
58,395,423
12,75,145
1340,6685,26709
5,10,48
7,33,40
24,147,173
5,13,31
2,1,8
5,6,34
6,15,46
6,24,12
4,2,23
8,25,55
7,31,24
9,40,102
7,20,35
5,1,34
8,29,51
15,78,177
6,8,49
16,211,69
7,23,32
18,89,207
6,1,54
3,2,18
9,29,97
12,77,73
5579,19510,119821
369,3288,4749
4,8,31
8,33,47
512,4966,7470
8,27,72
5354,32099,101569
20,154,160
6,14,57
30,137,505
4,8,38
6,8,28
6,8,58
7,22,33
7,22,51
7,7,68
35,154,615
5580,19515,119898
4,7,34
5,17,38
7,15,54
6,17,27
8357,50119,133636
2769,17523,43368
41,412,273
6,4,47
9,37,54
6,19,31
5,7,37
31,212,409
22,156,274
30,196,235
7,19,61
8,26,108
66,253,853
4068,53579,32719
12,90,72
35,137,388
561,4705,9190
576,3047,11015
46,446,378
19,111,164
8,33,47
4,1,38
16,117,157
8,19,108
8,25,60
6,16,44
6,9,39
13,65,122
6,18,32
6,9,46
7,9,62
8395,105786,78324
6,14,36
19,111,208
12131,128270,65151
14,85,99
11,72,77
24,177,233
17,90,161
8,20,68
2010,14159,24157
8,24,56
14,116,94
370,2808,5069
14,39,179
5,15,80
12079,101431,95915
2123,5983,40032
11144,58424,136491
10,55,66
45,214,581
1967,8841,21572
78,515,758
25,117,361
26,153,260
8358,50106,133668
4,0,20
8,16,64
5,10,59
8420,104024,80322
16,103,207
4,20,28
8,38,42
12,57,162
12277,100037,114681
15,64,192
17,129,76
3,1,15
7,23,46
6,14,36
11,78,104
6,22,53
48,325,710
15,117,61
7,10,51
5,20,48
5,18,42
12368,81709,147363
6,19,70
10,68,100
8,37,43
5,23,41
173,1406,2285
8,48,67
36,134,736
16,69,55
5,15,38
5,12,65
7,16,39
6,35,61
8,32,48
5,14,55
9,31,58
24,167,219
6,9,42
6,15,35
5,4,27
15,101,170
7,16,39
25,165,211
8098,90780,87206
5,6,37
7,26,29
4,4,34
842,4470,968
6,12,39
45,244,599
10,33,99
15,90,165
5,5,20
7,38,72
8,9,71
6,13,63
5,5,55
13,40,151
24,127,373
23,151,270
16742,103540,164414
26,153,299
11,38,117
17,45,261
2772,174,52426
4,4,26
26,96,493
7435,39000,124490
6,20,24
23,173,282
6,15,45
5,8,41
6,2,49
4,7,36
5,10,36
19297,151963,124504
4,3,21
24,132,178
11134,52900,191988
7,20,35
35,122,279
15,59,131
5,6,38
7,23,53
7,13,42
4,1,19
4,5,59
5,16,21
7,24,65
7,33,76
9,32,81
6,17,29
6,10,40
15,17,140
6,12,24
8,34,46
20,126,166
8,41,39
9,48,51
4,2,19
1866,10239,36279
7,29,78
11,70,110
15361,86110,162701
4,7,53
5,2,34
11795,99197,85356
12,35,129
8,36,44
11,40,147
20,95,170
19,152,157
8,21,59
16,117,100
8,29,51
6,6,38
21,143,176
6,16,28
3,1,21
53,260,637
7,19,50
19,113,159
13,104,67
9,58,53
225,1992,3211
5,16,21
13,70,103
3,2,35
8364,44522,139442
19,186,125
7,23,57
8,34,46
12,112,82
54,364,400
1299,8489,17233
15,76,143
13,76,117
6,17,51
5706,36732,61009
4,8,41
1636,4930,26072
3,6,24
80,607,1057
7,10,65
8,32,48
34,184,450
3,3,45
21,164,168
29,124,341
2835,8684,45167
6,15,54
10750,102948,94080
3,13,26
8361,72225,111676
5,33,38
15,87,221
10,35,95
8,25,55
12,63,105
4,9,30
9,30,103
8,30,50
5,3,45
7,16,45
7,15,40
12,34,90
6,16,52
17,94,225
16,189,71
50,455,298
24,230,117
7,13,63
18,111,219
17,98,239
11,53,86
17,42,226
14,72,62
11,71,64
4,13,60
6,9,27
6,12,44
5,18,50
2226,84,42182
7,27,46
7,24,31
8,34,91
14,45,206
9,30,82
7,28,45
9,27,123
2,0,26
4,2,25
5,11,14
29,344,320
21,100,319
4,5,34
6,21,47
68,318,1118
10,9,149
20,115,265
1866,10219,36296
6,20,55
22,150,268
8,23,57
20,110,164
8,38,42
14,31,123
7,9,62
13,137,93
8,32,63
11,56,77
4,10,45
33,198,488
35,135,400
43,235,509
5,8,23
7574,79921,85941
7,38,58
14,91,180
71,338,1002
7,17,54
8,42,38
8,51,29
8,26,54
7,21,34
2,7,12
3272,37014,15105
11,65,140
1863,9306,26046
7,14,41
8,27,53
6827,51135,102756
20,125,242
18,108,214
18,61,321
2957,9862,62947
4,10,37
7,12,43
141,966,1107
5,7,34
5,19,47
7,21,55
18,239,91
9,47,58
5,7,39
15,88,204
15,71,178
2932,14528,21073
41,159,504
1033,9235,16242
32,134,336
15,64,120
2,1,8
47,443,478
27,128,387
22,286,72
47,100,769
40,134,272
5573,19502,86370
7,25,44
11,71,46
31,254,305
35,217,274
36,289,263
2813,28689,36396
20,97,149
6,14,76
16,86,234
8,28,52
48,486,493
89,806,1009
7,10,65
6,13,51
529,3711,6194
14,96,184
51,235,678
13,87,140
8355,25009,158400
8,37,77
34,206,421
8662,50818,139650
8348,88789,94605
31,216,337
13887,90374,169439
