Initialize SIGNATURE TABLE
ST_SET: 1
ST_WAY: 256
ST_TAG_BIT: 16
ST_TAG_MASK: ffff

Initialize PATTERN TABLE
PT_SET: 512
PT_WAY: 4
SIG_DELTA_BIT: 7
C_SIG_BIT: 4
C_DELTA_BIT: 4

Initialize PREFETCH FILTER
FILTER_SET: 1024

*** ChampSim Multicore Out-of-Order Simulator ***

Warmup Instructions: 50000000
Simulation Instructions: 50000000
Number of CPUs: 1
LLC sets: 2048
LLC ways: 16
Off-chip DRAM Size: 4096 MB Channels: 1 Width: 64-bit Data Rate: 3200 MT/s

CPU 0 runs /ChampSim-master-BTBX/dpc3_traces/server_014.champsimtrace.xz
Basic BTB sets: 4096 ways: 4 indirect buffer size: 4096 RAS size: 64
CPU 0 L1D next line prefetcher
Heartbeat CPU 0 instructions: 10000003 cycles: 3519515 heartbeat IPC: 2.8413 cumulative IPC: 2.8413 (Simulation time: 0 hr 0 min 19 sec) 
Heartbeat CPU 0 instructions: 20000000 cycles: 7106242 heartbeat IPC: 2.78806 cumulative IPC: 2.81443 (Simulation time: 0 hr 0 min 37 sec) 
Heartbeat CPU 0 instructions: 30000001 cycles: 10647755 heartbeat IPC: 2.82365 cumulative IPC: 2.8175 (Simulation time: 0 hr 0 min 55 sec) 
Heartbeat CPU 0 instructions: 40000003 cycles: 14195974 heartbeat IPC: 2.81832 cumulative IPC: 2.8177 (Simulation time: 0 hr 1 min 15 sec) 
Heartbeat CPU 0 instructions: 50000000 cycles: 17744650 heartbeat IPC: 2.81795 cumulative IPC: 2.81775 (Simulation time: 0 hr 1 min 34 sec) 

Warmup complete CPU 0 instructions: 50000001 cycles: 17744651 (Simulation time: 0 hr 1 min 34 sec) 

Heartbeat CPU 0 instructions: 60000000 cycles: 29127319 heartbeat IPC: 0.878529 cumulative IPC: 0.878529 (Simulation time: 0 hr 1 min 52 sec) 
Heartbeat CPU 0 instructions: 70000000 cycles: 40508013 heartbeat IPC: 0.878681 cumulative IPC: 0.878605 (Simulation time: 0 hr 2 min 11 sec) 
*** Reached end of trace for Core: 0 Repeating trace: /ChampSim-master-BTBX/dpc3_traces/server_014.champsimtrace.xz
Heartbeat CPU 0 instructions: 80000001 cycles: 51738262 heartbeat IPC: 0.890452 cumulative IPC: 0.882519 (Simulation time: 0 hr 2 min 29 sec) 
Heartbeat CPU 0 instructions: 90000003 cycles: 64202604 heartbeat IPC: 0.802289 cumulative IPC: 0.860994 (Simulation time: 0 hr 2 min 49 sec) 
Heartbeat CPU 0 instructions: 100000000 cycles: 75689362 heartbeat IPC: 0.870567 cumulative IPC: 0.862891 (Simulation time: 0 hr 3 min 8 sec) 
Finished CPU 0 instructions: 50000000 cycles: 57944713 cumulative IPC: 0.862891 (Simulation time: 0 hr 3 min 8 sec) 

ChampSim completed all CPUs

Region of Interest Statistics

CPU 0
XXX cumulative-IPC 0.862891
XXX instructions 50000000
XXX cycles 57944713
L1D TOTAL     ACCESS:   22905873  HIT:   22834994  MISS:      70879
L1D LOAD      ACCESS:    7268566  HIT:    7241933  MISS:      26633
L1D RFO       ACCESS:    8510973  HIT:    8478902  MISS:      32071
L1D PREFETCH  ACCESS:    7126334  HIT:    7114159  MISS:      12175
L1D WRITEBACK ACCESS:          0  HIT:          0  MISS:          0
L1D PREFETCH  REQUESTED:    7280913  ISSUED:    7184239
XXX L1D-USEFUL 3611
XXX L1D-USELESS 8564
L1D AVERAGE MISS LATENCY: 209.065 cycles
L1I TOTAL     ACCESS:   14880155  HIT:   12290275  MISS:    2589880
L1I LOAD      ACCESS:    9441177  HIT:    7862395  MISS:    1578782
L1I RFO       ACCESS:          0  HIT:          0  MISS:          0
L1I PREFETCH  ACCESS:    5438978  HIT:    4427880  MISS:    1011098
L1I WRITEBACK ACCESS:          0  HIT:          0  MISS:          0
L1I PREFETCH  REQUESTED:    7789654  ISSUED:    7789654
XXX L1I-USEFUL 556279
XXX L1I-USELESS 454811
L1I AVERAGE MISS LATENCY: 13.6398 cycles
L2C TOTAL     ACCESS:    3918353  HIT:    3846071  MISS:      72282
L2C LOAD      ACCESS:    1481119  HIT:    1465145  MISS:      15974
L2C RFO       ACCESS:      32038  HIT:       1084  MISS:      30954
L2C PREFETCH  ACCESS:    2366825  HIT:    2341489  MISS:      25336
L2C WRITEBACK ACCESS:      38371  HIT:      38353  MISS:         18
L2C PREFETCH  REQUESTED:    2784761  ISSUED:    2784761
XXX L2C-USEFUL 2553
XXX L2C-USELESS 22458
L2C AVERAGE MISS LATENCY: 238.364 cycles
LLC TOTAL     ACCESS:     505437  HIT:     440235  MISS:      65202
LLC LOAD      ACCESS:      15375  HIT:       4827  MISS:      10548
LLC RFO       ACCESS:      30954  HIT:       4417  MISS:      26537
LLC PREFETCH  ACCESS:     424219  HIT:     396192  MISS:      28027
LLC WRITEBACK ACCESS:      34889  HIT:      34799  MISS:         90
LLC PREFETCH  REQUESTED:          0  ISSUED:          0
XXX LLC-USEFUL 4319
XXX LLC-USELESS 24058
LLC AVERAGE MISS LATENCY: 275.303 cycles
Major fault: 0 Minor fault: 1914
XXX disp-0 2588873
XXX disp-1 0
XXX disp-2 22
XXX disp-3 257520
XXX disp-4 786793
XXX disp-5 871001
XXX disp-6 1386721
XXX disp-7 629522
XXX disp-8 656853
XXX disp-9 498772
XXX disp-10 379482
XXX disp-11 401725
XXX disp-12 99194
XXX disp-13 75453
XXX disp-14 220253
XXX disp-15 187508
XXX disp-16 122992
XXX disp-17 18269
XXX disp-18 89006
XXX disp-19 329828
XXX disp-20 160609
XXX disp-21 128941
XXX disp-22 90
XXX disp-23 511934
XXX disp-24 0
XXX disp-25 0
XXX disp-26 0
XXX disp-27 0
XXX disp-28 0
XXX disp-29 0
XXX disp-30 0
XXX disp-31 0
XXX disp-32 0
XXX disp-33 0
XXX disp-34 0
XXX disp-35 0
XXX disp-36 0
XXX disp-37 0
XXX disp-38 0
XXX disp-39 0
XXX disp-40 0
XXX disp-41 0
XXX disp-42 0
XXX disp-43 0
XXX disp-44 0
XXX disp-45 0
XXX disp-46 0
XXX disp-47 4300
XXX disp-48 0
XXX disp-49 0
XXX disp-50 0
XXX disp-51 0
XXX disp-52 0
XXX disp-53 0
XXX disp-54 0
XXX disp-55 0
XXX disp-56 0
XXX disp-57 0
XXX disp-58 0
XXX disp-59 0
XXX disp-60 0
XXX disp-61 0
XXX disp-62 0
XXX disp-63 0
XXX disp-64 0
XXX disp-65 0
XXX diffBits-0 2588873
XXX diffBits-1 0
XXX diffBits-2 130217
XXX diffBits-3 360645
XXX diffBits-4 580550
XXX diffBits-5 1180331
XXX diffBits-6 807346
XXX diffBits-7 578980
XXX diffBits-8 646086
XXX diffBits-9 547682
XXX diffBits-10 543028
XXX diffBits-11 477165
XXX diffBits-12 73354
XXX diffBits-13 63678
XXX diffBits-14 120434
XXX diffBits-15 73876
XXX diffBits-16 90138
XXX diffBits-17 4561
XXX diffBits-18 57936
XXX diffBits-19 596881
XXX diffBits-20 241749
XXX diffBits-21 125881
XXX diffBits-22 511970
XXX diffBits-23 0
XXX diffBits-24 0
XXX diffBits-25 0
XXX diffBits-26 0
XXX diffBits-27 0
XXX diffBits-28 0
XXX diffBits-29 0
XXX diffBits-30 0
XXX diffBits-31 0
XXX diffBits-32 0
XXX diffBits-33 0
XXX diffBits-34 0
XXX diffBits-35 0
XXX diffBits-36 0
XXX diffBits-37 0
XXX diffBits-38 0
XXX diffBits-39 0
XXX diffBits-40 0
XXX diffBits-41 0
XXX diffBits-42 0
XXX diffBits-43 0
XXX diffBits-44 0
XXX diffBits-45 0
XXX diffBits-46 4300
XXX diffBits-47 0
XXX diffBits-48 0
XXX diffBits-49 0
XXX diffBits-50 0
XXX diffBits-51 0
XXX diffBits-52 0
XXX diffBits-53 0
XXX diffBits-54 0
XXX diffBits-55 0
XXX diffBits-56 0
XXX diffBits-57 0
XXX diffBits-58 0
XXX diffBits-59 0
XXX diffBits-60 0
XXX diffBits-61 0
XXX diffBits-62 0
XXX diffBits-63 0
XXX diffBits-64 0
XXX diffBits-65 0
CPU 0 L1D next line prefetcher final stats

DRAM Statistics
 CHANNEL 0
 RQ ROW_BUFFER_HIT:      27659  ROW_BUFFER_MISS:      37451
 DBUS_CONGESTED:      62804
 WQ ROW_BUFFER_HIT:       8555  ROW_BUFFER_MISS:      23907  FULL:          0

 AVG_CONGESTED_CYCLE: 6

CPU 0 Branch Prediction Accuracy: 94.0115% MPKI: 10.1935 Average ROB Occupancy at Mispredict: 61.7363

XXX total_mispredicts 509674
XXX total_target_mispredicts1 363383
XXX total_target_mispredicts2 4995
XXX total_direction_mispredicts 141296
XXX mispredict_on_btb_hit 355855
XXX NOT_BRANCH: 0
XXX BRANCH_DIRECT_JUMP: 251
XXX BRANCH_INDIRECT: 57
XXX BRANCH_CONDITIONAL: 0
XXX BRANCH_DIRECT_CALL: 106
XXX BRANCH_INDIRECT_CALL: 13104
XXX BRANCH_RETURN: 342337
XXX BRANCH_OTHER: 0
Branch types
NOT_BRANCH: 41488798 82.9776%
BRANCH_DIRECT_JUMP: 449415 0.89883%
BRANCH_INDIRECT: 2330 0.00466%
BRANCH_CONDITIONAL: 5470000 10.94%
BRANCH_DIRECT_CALL: 1172177 2.34435%
BRANCH_INDIRECT_CALL: 122383 0.244766%
BRANCH_RETURN: 1294544 2.58909%
BRANCH_OTHER: 0 0%

XXX BTB_reads: 6155215
XXX BTB_writes: 11068
XXX PageBTB_reads: 0
XXX PageBTB_writes: 0
XXX PageBTB_readsBeforeWrite: 0
XXX RegionBTB_reads: 0
XXX RegionBTB_writes: 0
XXX RegionBTB_readsBeforeWrite: 0
XXX BTB_4D_Hits 534991
XXX BTB_6D_Hits 992456
XXX BTB_8D_Hits 884539
XXX BTB_12D_Hits 577256
XXX BTB_18D_Hits 590624
XXX BTB_25D_Hits 316880
XXX BTB_46D_Hits 1931
XXX BTB_Ret_Hits 1293367
XXX BTB_4D_Misses 843
XXX BTB_6D_Misses 570
XXX BTB_8D_Misses 1381
XXX BTB_12D_Misses 1217
XXX BTB_18D_Misses 890
XXX BTB_25D_Misses 2296
XXX BTB_46D_Misses 2694
XXX BTB_Ret_Misses 1177
XXX Num_unique_branches 13861
total instructions: 0
wc,tif,trb
29,83,267
38,189,332
40,233,255
44,169,475
50,207,398
49,266,485
32,161,323
32,158,316
27,155,172
52,261,534
27,122,228
56,220,587
70,291,587
24,110,185
22,109,198
28,139,175
32,99,416
72,467,432
31,190,252
44,231,380
27,219,148
37,157,326
26,130,246
29,111,235
30,179,182
27,156,231
34,142,277
43,215,264
39,210,287
36,160,380
45,242,448
43,193,497
69,343,511
22,126,156
31,144,336
20,102,117
29,89,316
26,183,187
16,115,94
12,48,124
15,63,162
25,161,197
27,133,318
26,203,138
36,174,338
28,128,211
31,202,167
34,156,388
17,138,143
39,281,170
19,65,290
37,242,289
37,195,219
25,140,179
34,142,310
37,163,412
36,188,194
55,279,325
34,206,320
29,165,320
24,150,200
33,170,321
31,121,365
44,147,437
51,330,314
30,153,280
35,185,313
41,196,302
43,234,292
37,162,246
26,171,191
23,142,144
38,228,216
27,136,217
31,118,374
24,140,194
51,231,454
23,123,171
41,144,543
21,140,159
41,182,462
50,269,362
25,134,221
34,133,264
62,219,595
19,70,211
31,160,347
61,334,402
46,233,565
25,141,266
38,201,319
21,72,290
31,149,326
51,263,444
29,124,359
26,135,223
43,279,385
20,73,165
27,112,237
54,208,782
40,153,339
24,146,227
40,209,339
45,295,350
40,187,354
39,207,404
27,97,302
50,220,547
29,152,239
52,248,570
32,204,225
50,303,401
49,238,403
43,236,259
72,402,576
17,121,124
25,99,336
33,140,266
46,235,384
23,95,268
31,103,300
45,198,462
29,96,363
31,126,383
48,202,550
28,143,362
29,119,280
43,187,494
37,174,282
21,122,183
37,158,330
23,116,129
41,223,317
35,180,325
29,118,291
41,225,340
44,160,426
24,89,315
45,294,274
31,177,224
55,324,397
33,151,203
30,172,344
28,115,233
57,321,582
33,176,202
35,177,302
36,136,437
36,225,189
44,175,398
38,134,362
32,163,233
36,206,364
45,273,423
50,241,538
29,153,252
45,243,312
27,101,304
29,134,265
42,186,356
20,105,143
32,119,367
44,218,275
37,182,348
22,157,155
20,84,218
42,138,429
38,249,211
30,144,358
45,199,400
46,216,398
56,339,364
15,47,178
40,227,346
34,174,268
29,165,323
38,176,292
24,170,124
26,99,379
27,96,279
39,186,342
24,130,212
37,166,395
37,45,370
36,146,400
50,256,416
39,207,372
33,150,260
37,135,465
49,246,477
42,191,241
39,158,507
13,50,154
41,261,279
33,178,328
25,135,250
45,228,402
28,135,253
56,255,529
7,28,27
41,185,419
42,172,334
42,271,346
33,153,281
22,118,184
51,283,365
55,247,443
42,192,510
51,325,268
80,364,829
35,204,337
42,214,386
22,98,235
47,269,324
52,253,520
99,454,1411
36,154,387
36,147,382
36,181,206
58,236,696
26,108,254
35,158,419
25,107,224
44,297,389
28,106,329
41,142,368
18,79,146
20,93,205
33,197,230
31,155,273
25,104,205
19,71,260
29,136,219
47,214,417
50,252,369
34,202,264
26,81,351
48,255,373
26,118,230
23,113,208
31,124,295
30,119,325
8,53,86
48,221,434
20,117,162
25,113,183
50,244,374
36,149,286
31,173,292
36,110,374
43,240,347
32,130,283
29,142,302
43,216,391
15,76,159
16,104,176
58,286,405
40,190,346
27,88,307
42,172,384
45,233,311
35,216,209
29,138,202
49,217,387
28,88,288
44,208,359
35,154,350
46,292,326
51,227,578
43,164,528
31,161,310
44,203,418
22,78,175
47,336,320
32,166,196
48,304,372
25,119,347
52,303,400
38,155,406
18,76,166
37,188,358
27,194,235
42,212,486
54,252,499
29,121,254
36,160,416
28,118,322
2437,7381,53174
51,218,537
43,187,354
39,195,357
60,315,619
47,163,583
39,164,245
20,68,253
50,165,437
32,119,273
65,411,451
33,162,362
29,99,344
40,160,335
18,96,182
27,122,253
61,237,497
26,142,223
46,241,365
41,202,304
34,167,266
29,156,223
39,127,347
43,223,387
35,161,323
26,96,268
24,114,180
8,20,60
28,156,253
47,206,440
33,116,393
35,168,355
41,142,380
36,245,291
33,166,322
30,155,225
49,219,504
24,132,193
39,148,369
23,95,207
44,201,412
16,80,111
32,110,408
21,102,149
56,219,513
29,99,304
46,296,292
54,315,490
32,137,413
38,203,363
37,224,250
39,227,222
49,338,407
64,278,569
37,184,416
58,221,556
29,102,292
26,168,250
16,61,111
37,188,369
49,268,511
21,108,233
54,213,600
37,193,361
66,365,451
41,111,403
49,246,401
55,298,440
30,145,371
29,143,210
61,273,551
33,188,361
25,96,170
52,257,272
61,369,505
36,203,275
47,199,561
37,240,198
51,283,478
27,232,135
20,101,201
42,234,362
19,132,137
37,239,223
62,291,664
45,235,328
30,106,341
19,68,263
50,292,386
49,219,489
34,158,299
29,128,202
40,212,340
35,183,283
32,169,297
25,99,330
38,142,323
29,178,196
22,143,119
14,25,187
46,223,364
30,192,270
47,256,353
37,161,426
40,293,245
34,159,328
41,181,380
63,297,520
36,163,286
34,189,303
40,212,318
63,290,540
24,83,273
43,243,327
32,140,292
29,145,255
24,113,167
38,187,374
31,184,333
24,102,260
16,105,143
45,282,294
10,36,102
43,177,371
39,175,342
40,189,323
21,147,130
58,280,682
46,308,362
36,195,292
26,164,174
22,88,198
55,290,468
15,94,107
38,203,364
57,238,517
38,184,269
31,143,293
48,195,510
30,145,267
37,193,341
53,201,399
36,167,347
29,221,177
28,154,145
45,294,261
33,144,337
19,97,162
27,109,184
42,156,283
39,213,349
49,218,387
32,111,281
37,209,277
46,330,286
50,186,534
28,175,233
23,94,191
31,191,289
31,187,186
55,238,449
35,176,242
44,263,300
44,215,358
37,219,228
37,174,236
24,66,237
44,193,613
36,194,495
53,289,346
28,123,277
46,180,466
35,168,256
44,214,541
35,191,340
36,168,386
47,203,358
41,185,267
42,163,450
55,311,381
40,189,475
47,210,370
26,156,198
36,159,371
49,285,368
27,162,235
25,132,189
42,148,476
22,120,279
27,121,396
53,263,575
53,183,634
51,178,540
21,111,176
59,294,581
40,115,340
39,212,264
23,125,270
60,298,388
12,67,120
42,186,419
37,146,281
59,245,481
34,145,337
37,273,257
49,243,478
49,216,429
50,255,392
39,163,430
25,136,317
32,201,277
44,238,320
32,179,141
28,108,293
45,154,345
33,200,328
17,52,207
49,244,605
46,182,562
53,271,544
38,204,348
63,304,646
37,188,396
42,264,441
60,315,644
