Initialize SIGNATURE TABLE
ST_SET: 1
ST_WAY: 256
ST_TAG_BIT: 16
ST_TAG_MASK: ffff

Initialize PATTERN TABLE
PT_SET: 512
PT_WAY: 4
SIG_DELTA_BIT: 7
C_SIG_BIT: 4
C_DELTA_BIT: 4

Initialize PREFETCH FILTER
FILTER_SET: 1024

*** ChampSim Multicore Out-of-Order Simulator ***

Warmup Instructions: 50000000
Simulation Instructions: 50000000
Number of CPUs: 1
LLC sets: 2048
LLC ways: 16
Off-chip DRAM Size: 4096 MB Channels: 1 Width: 64-bit Data Rate: 3200 MT/s

CPU 0 runs /ChampSim-master-BTBX/dpc3_traces/server_023.champsimtrace.xz
Basic BTB sets: 4096 ways: 4 indirect buffer size: 4096 RAS size: 64
CPU 0 L1D next line prefetcher
Heartbeat CPU 0 instructions: 10000000 cycles: 3499597 heartbeat IPC: 2.85747 cumulative IPC: 2.85747 (Simulation time: 0 hr 0 min 19 sec) 
Heartbeat CPU 0 instructions: 20000000 cycles: 6998140 heartbeat IPC: 2.85833 cumulative IPC: 2.8579 (Simulation time: 0 hr 0 min 37 sec) 
Heartbeat CPU 0 instructions: 30000001 cycles: 10490279 heartbeat IPC: 2.86357 cumulative IPC: 2.85979 (Simulation time: 0 hr 0 min 54 sec) 
Heartbeat CPU 0 instructions: 40000003 cycles: 13989045 heartbeat IPC: 2.85815 cumulative IPC: 2.85938 (Simulation time: 0 hr 1 min 13 sec) 
Heartbeat CPU 0 instructions: 50000001 cycles: 17488970 heartbeat IPC: 2.8572 cumulative IPC: 2.85894 (Simulation time: 0 hr 1 min 31 sec) 

Warmup complete CPU 0 instructions: 50000001 cycles: 17488970 (Simulation time: 0 hr 1 min 31 sec) 

Heartbeat CPU 0 instructions: 60000002 cycles: 31016490 heartbeat IPC: 0.739234 cumulative IPC: 0.739234 (Simulation time: 0 hr 1 min 48 sec) 
Heartbeat CPU 0 instructions: 70000000 cycles: 44580466 heartbeat IPC: 0.737247 cumulative IPC: 0.738239 (Simulation time: 0 hr 2 min 6 sec) 
Heartbeat CPU 0 instructions: 80000000 cycles: 58031056 heartbeat IPC: 0.743462 cumulative IPC: 0.739972 (Simulation time: 0 hr 2 min 23 sec) 
Heartbeat CPU 0 instructions: 90000000 cycles: 70573148 heartbeat IPC: 0.797315 cumulative IPC: 0.75352 (Simulation time: 0 hr 2 min 40 sec) 
Heartbeat CPU 0 instructions: 100000001 cycles: 84163519 heartbeat IPC: 0.735815 cumulative IPC: 0.749911 (Simulation time: 0 hr 2 min 58 sec) 
Finished CPU 0 instructions: 50000000 cycles: 66674549 cumulative IPC: 0.749911 (Simulation time: 0 hr 2 min 58 sec) 

ChampSim completed all CPUs

Region of Interest Statistics

CPU 0
XXX cumulative-IPC 0.749911
XXX instructions 50000000
XXX cycles 66674549
L1D TOTAL     ACCESS:   21733499  HIT:   20263667  MISS:    1469832
L1D LOAD      ACCESS:    7987230  HIT:    7339098  MISS:     648132
L1D RFO       ACCESS:    6072363  HIT:    5811838  MISS:     260525
L1D PREFETCH  ACCESS:    7673906  HIT:    7112731  MISS:     561175
L1D WRITEBACK ACCESS:          0  HIT:          0  MISS:          0
L1D PREFETCH  REQUESTED:    8043931  ISSUED:    7934728
XXX L1D-USEFUL 144053
XXX L1D-USELESS 417130
L1D AVERAGE MISS LATENCY: 25.3047 cycles
L1I TOTAL     ACCESS:   13624380  HIT:   10673445  MISS:    2950935
L1I LOAD      ACCESS:    9129698  HIT:    7575497  MISS:    1554201
L1I RFO       ACCESS:          0  HIT:          0  MISS:          0
L1I PREFETCH  ACCESS:    4494682  HIT:    3097948  MISS:    1396734
L1I WRITEBACK ACCESS:          0  HIT:          0  MISS:          0
L1I PREFETCH  REQUESTED:    6884562  ISSUED:    6884562
XXX L1I-USEFUL 897002
XXX L1I-USELESS 499727
L1I AVERAGE MISS LATENCY: 13.3588 cycles
L2C TOTAL     ACCESS:    6181740  HIT:    5183486  MISS:     998254
L2C LOAD      ACCESS:    1293974  HIT:    1066388  MISS:     227586
L2C RFO       ACCESS:     258610  HIT:     152761  MISS:     105849
L2C PREFETCH  ACCESS:    4129664  HIT:    3469174  MISS:     660490
L2C WRITEBACK ACCESS:     499492  HIT:     495163  MISS:       4329
L2C PREFETCH  REQUESTED:    3916249  ISSUED:    3915916
XXX L2C-USEFUL 74586
XXX L2C-USELESS 584971
L2C AVERAGE MISS LATENCY: 38.2259 cycles
LLC TOTAL     ACCESS:    1972714  HIT:    1925230  MISS:      47484
LLC LOAD      ACCESS:     227281  HIT:     222134  MISS:       5147
LLC RFO       ACCESS:     105847  HIT:      87865  MISS:      17982
LLC PREFETCH  ACCESS:    1465123  HIT:    1440884  MISS:      24239
LLC WRITEBACK ACCESS:     174463  HIT:     174347  MISS:        116
LLC PREFETCH  REQUESTED:          0  ISSUED:          0
XXX LLC-USEFUL 1919
XXX LLC-USELESS 21786
LLC AVERAGE MISS LATENCY: 168.017 cycles
Major fault: 0 Minor fault: 2775
XXX disp-0 2065835
XXX disp-1 0
XXX disp-2 1977
XXX disp-3 480369
XXX disp-4 1125013
XXX disp-5 1204145
XXX disp-6 1428061
XXX disp-7 704767
XXX disp-8 724187
XXX disp-9 413019
XXX disp-10 284052
XXX disp-11 205194
XXX disp-12 111181
XXX disp-13 123347
XXX disp-14 114951
XXX disp-15 135110
XXX disp-16 56962
XXX disp-17 68605
XXX disp-18 133800
XXX disp-19 120110
XXX disp-20 130655
XXX disp-21 255373
XXX disp-22 164320
XXX disp-23 322629
XXX disp-24 112093
XXX disp-25 0
XXX disp-26 0
XXX disp-27 0
XXX disp-28 0
XXX disp-29 0
XXX disp-30 0
XXX disp-31 0
XXX disp-32 0
XXX disp-33 0
XXX disp-34 0
XXX disp-35 0
XXX disp-36 0
XXX disp-37 0
XXX disp-38 0
XXX disp-39 0
XXX disp-40 0
XXX disp-41 0
XXX disp-42 0
XXX disp-43 0
XXX disp-44 0
XXX disp-45 0
XXX disp-46 282552
XXX disp-47 0
XXX disp-48 0
XXX disp-49 0
XXX disp-50 0
XXX disp-51 0
XXX disp-52 0
XXX disp-53 0
XXX disp-54 0
XXX disp-55 0
XXX disp-56 0
XXX disp-57 0
XXX disp-58 0
XXX disp-59 0
XXX disp-60 0
XXX disp-61 0
XXX disp-62 0
XXX disp-63 7
XXX disp-64 0
XXX disp-65 0
XXX diffBits-0 2065835
XXX diffBits-1 1324
XXX diffBits-2 181340
XXX diffBits-3 696960
XXX diffBits-4 743483
XXX diffBits-5 1023148
XXX diffBits-6 744486
XXX diffBits-7 1115978
XXX diffBits-8 495023
XXX diffBits-9 581020
XXX diffBits-10 515158
XXX diffBits-11 293540
XXX diffBits-12 179255
XXX diffBits-13 164713
XXX diffBits-14 53749
XXX diffBits-15 92210
XXX diffBits-16 131551
XXX diffBits-17 103594
XXX diffBits-18 77059
XXX diffBits-19 111801
XXX diffBits-20 287180
XXX diffBits-21 243778
XXX diffBits-22 371143
XXX diffBits-23 0
XXX diffBits-24 0
XXX diffBits-25 212427
XXX diffBits-26 0
XXX diffBits-27 0
XXX diffBits-28 0
XXX diffBits-29 0
XXX diffBits-30 0
XXX diffBits-31 0
XXX diffBits-32 0
XXX diffBits-33 0
XXX diffBits-34 0
XXX diffBits-35 0
XXX diffBits-36 0
XXX diffBits-37 0
XXX diffBits-38 0
XXX diffBits-39 0
XXX diffBits-40 0
XXX diffBits-41 0
XXX diffBits-42 0
XXX diffBits-43 0
XXX diffBits-44 0
XXX diffBits-45 282552
XXX diffBits-46 0
XXX diffBits-47 0
XXX diffBits-48 0
XXX diffBits-49 0
XXX diffBits-50 0
XXX diffBits-51 0
XXX diffBits-52 0
XXX diffBits-53 0
XXX diffBits-54 0
XXX diffBits-55 0
XXX diffBits-56 0
XXX diffBits-57 0
XXX diffBits-58 0
XXX diffBits-59 0
XXX diffBits-60 0
XXX diffBits-61 0
XXX diffBits-62 7
XXX diffBits-63 0
XXX diffBits-64 0
XXX diffBits-65 0
CPU 0 L1D next line prefetcher final stats

DRAM Statistics
 CHANNEL 0
 RQ ROW_BUFFER_HIT:      14633  ROW_BUFFER_MISS:      32725
 DBUS_CONGESTED:      28816
 WQ ROW_BUFFER_HIT:       2293  ROW_BUFFER_MISS:      19141  FULL:          0

 AVG_CONGESTED_CYCLE: 5

CPU 0 Branch Prediction Accuracy: 81.5389% MPKI: 33.7897 Average ROB Occupancy at Mispredict: 38.1355

XXX total_mispredicts 1689487
XXX total_target_mispredicts1 1238082
XXX total_target_mispredicts2 301489
XXX total_direction_mispredicts 149916
XXX mispredict_on_btb_hit 504388
XXX NOT_BRANCH: 0
XXX BRANCH_DIRECT_JUMP: 16353
XXX BRANCH_INDIRECT: 16710
XXX BRANCH_CONDITIONAL: 0
XXX BRANCH_DIRECT_CALL: 10717
XXX BRANCH_INDIRECT_CALL: 14888
XXX BRANCH_RETURN: 445720
XXX BRANCH_OTHER: 0
Branch types
NOT_BRANCH: 40848107 81.6962%
BRANCH_DIRECT_JUMP: 548368 1.09674%
BRANCH_INDIRECT: 189802 0.379604%
BRANCH_CONDITIONAL: 6372722 12.7454%
BRANCH_DIRECT_CALL: 862206 1.72441%
BRANCH_INDIRECT_CALL: 158147 0.316294%
BRANCH_RETURN: 1020342 2.04068%
BRANCH_OTHER: 0 0%

XXX BTB_reads: 20284426
XXX BTB_writes: 1022728
XXX PageBTB_reads: 0
XXX PageBTB_writes: 0
XXX PageBTB_readsBeforeWrite: 0
XXX RegionBTB_reads: 0
XXX RegionBTB_writes: 0
XXX RegionBTB_readsBeforeWrite: 0
XXX BTB_4D_Hits 758397
XXX BTB_6D_Hits 838998
XXX BTB_8D_Hits 922481
XXX BTB_12D_Hits 401414
XXX BTB_18D_Hits 212510
XXX BTB_25D_Hits 167746
XXX BTB_46D_Hits 86853
XXX BTB_Ret_Hits 959629
XXX BTB_4D_Misses 42857
XXX BTB_6D_Misses 36910
XXX BTB_8D_Misses 104431
XXX BTB_12D_Misses 108001
XXX BTB_18D_Misses 95223
XXX BTB_25D_Misses 201264
XXX BTB_46D_Misses 373329
XXX BTB_Ret_Misses 60713
XXX Num_unique_branches 12696
total instructions: 0
wc,tif,trb
4158,9479,93871
4028,22896,45841
2708,17719,26201
2914,21019,38945
1726,8197,34507
2011,16997,20957
4478,24647,61842
5690,24007,102407
4914,34311,54226
3980,29340,50336
3216,25752,27654
11728,64995,125823
22,96,306
2496,14783,35803
1126,5586,21660
2289,11447,32937
1577,14707,18184
727,2947,15026
4155,16988,82712
388,3262,5557
7130,49999,65489
34,205,431
6579,38481,58514
4332,19198,68490
4985,22186,81502
6800,50322,49332
2877,20428,20666
2476,9933,51713
3046,9627,62249
492,3144,9042
6320,29426,105606
2328,19847,34174
2839,22414,26429
1269,8947,17392
4922,23127,75513
1496,11600,16720
3946,12741,81545
7758,37180,111972
3432,13182,61058
2085,4611,47216
16,104,142
1974,19186,15508
743,2722,15609
1970,9832,39298
3896,22671,53448
6084,42552,28819
1095,6073,15806
3485,11467,72120
4933,21772,69917
5302,29711,62619
11,49,116
7393,40475,77309
4294,11482,74262
12,67,91
3494,21010,35219
3754,13086,77338
3493,23494,50911
240,1152,4094
2646,12769,46453
7,28,27
1031,1575,24022
7349,31724,90561
7467,45079,88935
12,20,189
2238,8731,39430
8551,49986,84363
7346,32025,88904
3179,22225,46592
2588,19230,32074
4540,26998,54264
3059,15585,52906
4861,36248,53861
2646,12725,46215
3374,21775,36036
1840,8421,37100
1375,10874,17883
5083,18120,82130
5416,36283,52688
3840,17895,66633
9007,45886,110761
2957,29541,32911
780,3643,13416
5623,17121,112651
1103,11147,4931
4008,24250,60576
25,130,253
1472,8024,27708
8517,46506,91281
3610,22217,37124
2376,15243,18834
6659,43306,57365
1976,5158,39956
2579,11166,48055
2105,14135,33379
4407,21953,74606
7480,41309,80410
3758,13834,66599
4294,27070,29642
6902,41581,104524
2573,9494,33817
2835,6165,56616
5976,28847,82555
1317,1998,30801
12883,68200,117780
715,2500,15250
1230,5299,24715
9334,66064,98989
5168,22028,75114
3463,16781,63772
7793,50268,70731
3134,14696,63158
7294,39532,102191
1343,6676,26671
8066,40631,68819
293,3116,3931
909,3725,18511
2003,6442,39304
5712,48545,53153
2221,8343,41352
7417,43777,39604
5752,34958,62998
6768,32878,90324
1115,4905,22036
5760,42207,50396
2767,14101,43486
1802,15016,24040
2033,8243,27629
2561,17365,37000
5823,28712,104069
2408,13390,31792
1819,15509,12180
8229,66220,38561
6802,48067,56984
1047,2023,23986
12,37,131
2269,15986,34969
862,5671,15229
1039,4990,10891
6670,42012,52511
911,2446,16301
985,8214,11821
532,110,12898
1068,5129,19093
2744,6181,60903
3545,19480,41811
6196,41389,70561
1311,5262,27341
1605,10102,16950
7085,42598,49874
4373,27731,43093
12242,63850,143240
8677,44016,99674
42,245,405
2449,16867,35842
160,1091,2545
2610,10453,46950
4053,19686,54577
109,728,1841
3715,17445,58203
3423,25008,39371
19,114,171
1238,5534,25276
3764,20308,46884
3385,20463,63814
990,1698,22486
118,845,900
998,5659,19047
1964,11765,31392
6837,42905,62187
1037,5061,18476
2111,17212,17330
1447,5058,30969
7432,37447,64334
25,132,379
23,84,359
2025,15688,14999
2143,6490,46984
745,5458,12789
695,37,17266
4958,23338,73320
258,1336,4684
2688,19297,44189
9,37,54
701,2472,14800
5526,33105,44736
1200,12449,12006
603,5547,8214
1820,18215,18207
2713,14582,48357
4256,23174,71813
15,23,234
6918,46641,62453
6025,23294,71058
16,62,184
516,2656,8112
2335,14274,19395
5314,38645,38026
3334,23521,34740
4111,36484,23961
1712,11013,31555
1489,5764,29092
4995,26833,64216
47,295,364
3451,26671,32842
2459,13954,37441
1915,15584,21866
1311,2652,29929
2404,14386,19334
13,76,87
8009,60247,47848
676,3387,13283
9,29,76
564,4233,9515
3718,25368,36593
1213,3704,26441
1122,8305,16147
8017,63431,41565
460,1311,8876
1197,10260,17172
246,750,5280
2328,18241,22885
17,79,118
1347,5413,27651
5278,30166,75589
1765,5683,36845
3586,25604,24101
1706,7430,32234
4753,15787,72856
1196,4789,24514
6070,26406,75857
15,61,124
417,1679,8584
4966,25230,63390
4544,28683,48904
1132,8389,19614
5654,36712,51501
4720,11704,90486
4191,25103,47142
2627,16636,35881
6374,20549,134077
2003,17830,26946
249,740,3909
3248,18290,27069
587,5441,5824
7330,54504,45459
3437,24142,38209
5474,29841,49452
1027,5317,18266
3181,32090,39829
3619,9461,71082
259,1051,5176
2333,10318,31685
1839,12635,19978
6786,32200,84088
22,77,268
2164,8696,45116
9116,48914,91695
2909,16426,39581
14,82,124
2795,5641,62372
2548,10191,53337
864,3449,17969
1793,11175,21060
16,82,192
2843,9741,34241
3279,15542,51161
10,42,114
5828,22274,93259
3469,25175,36889
4266,33556,24136
14,118,88
1358,6698,26980
681,7252,9298
252,971,3637
6811,39111,82593
1791,11751,20043
3293,12404,63473
3102,17211,44151
949,6239,6484
2880,13143,53591
4148,18851,72031
622,5656,3202
1126,5046,19258
2573,5110,59061
2073,8925,38072
8,45,35
8277,41404,86423
3916,30877,40964
8300,37980,107645
5390,39725,35629
3182,13140,56012
461,2682,406
878,5666,8579
3172,15350,47433
5818,28284,55284
1889,19677,7242
1304,8794,18932
1294,7095,24511
2581,15030,22603
1653,4638,34833
247,1344,4637
2973,14442,55493
2654,15097,30977
6182,40785,38354
3168,6010,72756
3913,32073,34698
1287,2621,29400
1231,10888,16068
66,548,590
707,1806,15629
3246,16417,31935
2330,17801,7583
1942,10472,24655
2295,12723,25176
3386,23906,23339
1366,10191,21666
3833,19339,70571
2978,20930,24176
4944,26437,86621
2542,16318,38736
8712,61552,80774
1339,10666,14063
12319,77496,78855
10072,65896,78054
4418,12196,93796
700,2797,14597
5204,39760,51296
1249,10534,19380
1308,5279,27225
22,195,171
7005,42530,66962
6515,43955,60130
1775,6992,29169
4105,23863,47249
8075,57349,43392
4785,14558,98687
2170,16719,36038
1431,6379,29233
2653,23409,19360
7706,47115,94287
3095,10067,58664
5151,22551,86212
4728,32244,39981
3306,18294,40672
5509,29166,72406
2321,8449,42875
8365,59794,49460
5938,30227,93170
4377,20903,66033
3694,16066,75628
2137,10105,36734
6967,26398,103863
9,26,83
3214,24690,35503
5892,33031,56698
2275,8522,43689
8569,65271,58769
3279,21460,42217
3126,19094,45919
2317,16216,18799
2998,20486,29733
751,4454,14001
108,631,909
1663,5257,36186
5613,34133,85969
6114,44931,34095
2895,11740,42179
23,130,207
5248,23462,60222
3188,17822,45582
4329,14688,78863
5105,38822,51126
1805,13227,22817
3164,20698,28219
3444,24794,30111
2399,19020,27040
14,65,101
4050,27285,42799
5833,28367,79014
3397,16653,55824
7444,47448,78354
2587,9900,43982
10008,42295,131897
888,1941,20059
4048,32121,31061
215,1602,2323
14,55,163
6315,29929,88556
2654,10038,55748
3205,8790,51753
4753,18032,87209
6728,37716,94230
2327,6955,40791
10676,62378,102481
1353,5276,27761
7151,17542,118003
3533,28249,21946
7970,51701,41119
1321,7255,25478
1790,12798,18888
2075,10563,32847
8983,39529,125414
7438,53492,72384
1494,9041,5750
2109,7601,41305
4204,20332,79056
1289,10046,14818
1399,3206,31579
9898,62269,96675
703,2486,14855
1352,10502,17542
3113,20223,30896
9246,49938,115312
7008,43294,73111
9282,59481,88723
3502,16137,41837
1731,13743,8744
529,4307,8668
1273,10106,11202
4641,17266,80795
5,7,33
3726,27729,22610
3636,23845,24974
9392,61271,74105
634,1755,13009
4871,45646,23451
2441,14359,44357
30,78,306
4376,31928,34373
13,25,147
19,163,129
3036,23884,28532
1568,9617,22105
1221,8232,12780
5327,24384,68021
1320,6600,26224
368,2189,5716
4210,18333,78438
5490,24379,40162
2734,17903,44840
4390,29903,48195
4529,30420,35403
3582,29522,33806
4039,21231,52812
9873,52048,103632
11302,46925,162572
3331,18546,55852
8272,30511,101841
262,2086,2989
4489,29960,61531
7794,49136,85778
4544,28999,63477
3113,8938,68396
4295,25055,50772
17,77,157
3898,27704,43268
3225,20578,47645
1810,12335,13221
3248,24546,36130
13497,62346,154791
7165,41090,73739
676,9322,6552
2433,16541,33944
5961,19018,109167
14026,76796,115903
38,184,484
1350,3015,30569
9506,39327,101325
13,34,138
3980,24354,28321
35,166,377
1423,5723,29540
7681,40744,77059
2391,6211,49010
1804,10397,13088
4344,26942,55970
2611,7835,57320
15837,91092,131319
6378,45093,34587
2035,7186,37479
5250,31793,81998
23,117,184
1292,12186,19916
13930,79168,117054
5566,20206,87863
1330,10507,22460
309,3216,2140
3302,11754,70715
10,42,82
6433,43106,55426
6097,27223,89630
188,1912,1886
554,2476,11264
7463,53890,92010
2334,8357,49930
4510,29150,64075
5575,33297,75061
16,63,137
1910,7078,40186
1779,14349,19122
1700,6491,35735
4419,29549,38914
4966,33269,59086
2956,22401,46474
34,227,237
2403,13077,42028
2692,16050,45744
22,86,266
3840,27006,54054
8939,41784,144835
7060,33176,94794
2919,28390,37267
