Initialize SIGNATURE TABLE
ST_SET: 1
ST_WAY: 256
ST_TAG_BIT: 16
ST_TAG_MASK: ffff

Initialize PATTERN TABLE
PT_SET: 512
PT_WAY: 4
SIG_DELTA_BIT: 7
C_SIG_BIT: 4
C_DELTA_BIT: 4

Initialize PREFETCH FILTER
FILTER_SET: 1024

*** ChampSim Multicore Out-of-Order Simulator ***

Warmup Instructions: 50000000
Simulation Instructions: 50000000
Number of CPUs: 1
LLC sets: 2048
LLC ways: 16
Off-chip DRAM Size: 4096 MB Channels: 1 Width: 64-bit Data Rate: 3200 MT/s

CPU 0 runs /ChampSim-master-BTBX/dpc3_traces/server_029.champsimtrace.xz
Basic BTB sets: 4096 ways: 4 indirect buffer size: 4096 RAS size: 64
CPU 0 L1D next line prefetcher
Heartbeat CPU 0 instructions: 10000001 cycles: 3493710 heartbeat IPC: 2.86229 cumulative IPC: 2.86229 (Simulation time: 0 hr 0 min 18 sec) 
Heartbeat CPU 0 instructions: 20000002 cycles: 6986518 heartbeat IPC: 2.86303 cumulative IPC: 2.86266 (Simulation time: 0 hr 0 min 36 sec) 
Heartbeat CPU 0 instructions: 30000003 cycles: 10481459 heartbeat IPC: 2.86128 cumulative IPC: 2.8622 (Simulation time: 0 hr 0 min 55 sec) 
Heartbeat CPU 0 instructions: 40000000 cycles: 13983314 heartbeat IPC: 2.85563 cumulative IPC: 2.86055 (Simulation time: 0 hr 1 min 13 sec) 
Heartbeat CPU 0 instructions: 50000000 cycles: 17483647 heartbeat IPC: 2.85687 cumulative IPC: 2.85982 (Simulation time: 0 hr 1 min 31 sec) 

Warmup complete CPU 0 instructions: 50000004 cycles: 17483648 (Simulation time: 0 hr 1 min 31 sec) 

Heartbeat CPU 0 instructions: 60000000 cycles: 32147838 heartbeat IPC: 0.681933 cumulative IPC: 0.681933 (Simulation time: 0 hr 1 min 49 sec) 
Heartbeat CPU 0 instructions: 70000003 cycles: 46952211 heartbeat IPC: 0.675476 cumulative IPC: 0.678689 (Simulation time: 0 hr 2 min 7 sec) 
Heartbeat CPU 0 instructions: 80000002 cycles: 61590528 heartbeat IPC: 0.683139 cumulative IPC: 0.680166 (Simulation time: 0 hr 2 min 25 sec) 
*** Reached end of trace for Core: 0 Repeating trace: /ChampSim-master-BTBX/dpc3_traces/server_029.champsimtrace.xz
Heartbeat CPU 0 instructions: 90000000 cycles: 76112795 heartbeat IPC: 0.688598 cumulative IPC: 0.682254 (Simulation time: 0 hr 2 min 44 sec) 
Heartbeat CPU 0 instructions: 100000003 cycles: 90610711 heartbeat IPC: 0.689754 cumulative IPC: 0.683741 (Simulation time: 0 hr 3 min 4 sec) 
Finished CPU 0 instructions: 50000003 cycles: 73127064 cumulative IPC: 0.683741 (Simulation time: 0 hr 3 min 4 sec) 

ChampSim completed all CPUs

Region of Interest Statistics

CPU 0
XXX cumulative-IPC 0.683741
XXX instructions 50000003
XXX cycles 73127064
L1D TOTAL     ACCESS:   21843830  HIT:   19743032  MISS:    2100798
L1D LOAD      ACCESS:    8045732  HIT:    6995033  MISS:    1050699
L1D RFO       ACCESS:    6242761  HIT:    5957261  MISS:     285500
L1D PREFETCH  ACCESS:    7555337  HIT:    6790738  MISS:     764599
L1D WRITEBACK ACCESS:          0  HIT:          0  MISS:          0
L1D PREFETCH  REQUESTED:    8115973  ISSUED:    8038495
XXX L1D-USEFUL 191750
XXX L1D-USELESS 572841
L1D AVERAGE MISS LATENCY: 22.9843 cycles
L1I TOTAL     ACCESS:   14167514  HIT:   10594428  MISS:    3573086
L1I LOAD      ACCESS:    9372070  HIT:    7449407  MISS:    1922663
L1I RFO       ACCESS:          0  HIT:          0  MISS:          0
L1I PREFETCH  ACCESS:    4795444  HIT:    3145021  MISS:    1650423
L1I WRITEBACK ACCESS:          0  HIT:          0  MISS:          0
L1I PREFETCH  REQUESTED:    7746143  ISSUED:    7746143
XXX L1I-USEFUL 1042966
XXX L1I-USELESS 607470
L1I AVERAGE MISS LATENCY: 13.8409 cycles
L2C TOTAL     ACCESS:    7996392  HIT:    6777944  MISS:    1218448
L2C LOAD      ACCESS:    1849896  HIT:    1497446  MISS:     352450
L2C RFO       ACCESS:     282471  HIT:     202153  MISS:      80318
L2C PREFETCH  ACCESS:    5253036  HIT:    4474770  MISS:     778266
L2C WRITEBACK ACCESS:     610989  HIT:     603575  MISS:       7414
L2C PREFETCH  REQUESTED:    5473254  ISSUED:    5472476
XXX L2C-USEFUL 52603
XXX L2C-USELESS 724724
L2C AVERAGE MISS LATENCY: 37.2523 cycles
LLC TOTAL     ACCESS:    2608232  HIT:    2540067  MISS:      68165
LLC LOAD      ACCESS:     351999  HIT:     335336  MISS:      16663
LLC RFO       ACCESS:      80313  HIT:      76643  MISS:       3670
LLC PREFETCH  ACCESS:    2005072  HIT:    1957608  MISS:      47464
LLC WRITEBACK ACCESS:     170848  HIT:     170480  MISS:        368
LLC PREFETCH  REQUESTED:          0  ISSUED:          0
XXX LLC-USEFUL 2378
XXX LLC-USELESS 45215
LLC AVERAGE MISS LATENCY: 152.351 cycles
Major fault: 0 Minor fault: 5924
XXX disp-0 2347706
XXX disp-1 0
XXX disp-2 1685
XXX disp-3 375778
XXX disp-4 1509861
XXX disp-5 1091874
XXX disp-6 1334470
XXX disp-7 716175
XXX disp-8 636942
XXX disp-9 371835
XXX disp-10 262848
XXX disp-11 243082
XXX disp-12 116713
XXX disp-13 154326
XXX disp-14 128252
XXX disp-15 160375
XXX disp-16 84865
XXX disp-17 44609
XXX disp-18 158202
XXX disp-19 97864
XXX disp-20 123461
XXX disp-21 296768
XXX disp-22 168712
XXX disp-23 422710
XXX disp-24 81721
XXX disp-25 0
XXX disp-26 0
XXX disp-27 0
XXX disp-28 0
XXX disp-29 0
XXX disp-30 0
XXX disp-31 0
XXX disp-32 0
XXX disp-33 0
XXX disp-34 0
XXX disp-35 0
XXX disp-36 0
XXX disp-37 0
XXX disp-38 0
XXX disp-39 0
XXX disp-40 0
XXX disp-41 0
XXX disp-42 0
XXX disp-43 0
XXX disp-44 0
XXX disp-45 0
XXX disp-46 236591
XXX disp-47 0
XXX disp-48 0
XXX disp-49 0
XXX disp-50 0
XXX disp-51 0
XXX disp-52 0
XXX disp-53 0
XXX disp-54 0
XXX disp-55 0
XXX disp-56 0
XXX disp-57 0
XXX disp-58 0
XXX disp-59 0
XXX disp-60 0
XXX disp-61 0
XXX disp-62 0
XXX disp-63 0
XXX disp-64 0
XXX disp-65 0
XXX diffBits-0 2347706
XXX diffBits-1 1604
XXX diffBits-2 156565
XXX diffBits-3 608938
XXX diffBits-4 1144132
XXX diffBits-5 1173565
XXX diffBits-6 862547
XXX diffBits-7 660206
XXX diffBits-8 485059
XXX diffBits-9 566745
XXX diffBits-10 425854
XXX diffBits-11 266230
XXX diffBits-12 205265
XXX diffBits-13 166872
XXX diffBits-14 84136
XXX diffBits-15 123862
XXX diffBits-16 139148
XXX diffBits-17 108712
XXX diffBits-18 69267
XXX diffBits-19 155039
XXX diffBits-20 246967
XXX diffBits-21 265207
XXX diffBits-22 478846
XXX diffBits-23 0
XXX diffBits-24 0
XXX diffBits-25 188362
XXX diffBits-26 0
XXX diffBits-27 0
XXX diffBits-28 0
XXX diffBits-29 0
XXX diffBits-30 0
XXX diffBits-31 0
XXX diffBits-32 0
XXX diffBits-33 0
XXX diffBits-34 0
XXX diffBits-35 0
XXX diffBits-36 0
XXX diffBits-37 0
XXX diffBits-38 0
XXX diffBits-39 0
XXX diffBits-40 0
XXX diffBits-41 0
XXX diffBits-42 0
XXX diffBits-43 0
XXX diffBits-44 0
XXX diffBits-45 236591
XXX diffBits-46 0
XXX diffBits-47 0
XXX diffBits-48 0
XXX diffBits-49 0
XXX diffBits-50 0
XXX diffBits-51 0
XXX diffBits-52 0
XXX diffBits-53 0
XXX diffBits-54 0
XXX diffBits-55 0
XXX diffBits-56 0
XXX diffBits-57 0
XXX diffBits-58 0
XXX diffBits-59 0
XXX diffBits-60 0
XXX diffBits-61 0
XXX diffBits-62 0
XXX diffBits-63 0
XXX diffBits-64 0
XXX diffBits-65 0
CPU 0 L1D next line prefetcher final stats

DRAM Statistics
 CHANNEL 0
 RQ ROW_BUFFER_HIT:      20460  ROW_BUFFER_MISS:      47323
 DBUS_CONGESTED:      27772
 WQ ROW_BUFFER_HIT:        498  ROW_BUFFER_MISS:       3981  FULL:          0

 AVG_CONGESTED_CYCLE: 4

CPU 0 Branch Prediction Accuracy: 81.4327% MPKI: 34.9554 Average ROB Occupancy at Mispredict: 39.0506

XXX total_mispredicts 1747770
XXX total_target_mispredicts1 1320039
XXX total_target_mispredicts2 258041
XXX total_direction_mispredicts 169690
XXX mispredict_on_btb_hit 606462
XXX NOT_BRANCH: 0
XXX BRANCH_DIRECT_JUMP: 15842
XXX BRANCH_INDIRECT: 17403
XXX BRANCH_CONDITIONAL: 0
XXX BRANCH_DIRECT_CALL: 18990
XXX BRANCH_INDIRECT_CALL: 12950
XXX BRANCH_RETURN: 541277
XXX BRANCH_OTHER: 0
Branch types
NOT_BRANCH: 40586557 81.1731%
BRANCH_DIRECT_JUMP: 525208 1.05042%
BRANCH_INDIRECT: 166359 0.332718%
BRANCH_CONDITIONAL: 6373087 12.7462%
BRANCH_DIRECT_CALL: 989262 1.97852%
BRANCH_INDIRECT_CALL: 184984 0.369968%
BRANCH_RETURN: 1174250 2.3485%
BRANCH_OTHER: 0 0%

XXX BTB_reads: 20950679
XXX BTB_writes: 957121
XXX PageBTB_reads: 0
XXX PageBTB_writes: 0
XXX PageBTB_readsBeforeWrite: 0
XXX RegionBTB_reads: 0
XXX RegionBTB_writes: 0
XXX RegionBTB_readsBeforeWrite: 0
XXX BTB_4D_Hits 929828
XXX BTB_6D_Hits 944889
XXX BTB_8D_Hits 712740
XXX BTB_12D_Hits 381140
XXX BTB_18D_Hits 258589
XXX BTB_25D_Hits 199838
XXX BTB_46D_Hits 69821
XXX BTB_Ret_Hits 1130423
XXX BTB_4D_Misses 26777
XXX BTB_6D_Misses 21701
XXX BTB_8D_Misses 89267
XXX BTB_12D_Misses 103931
XXX BTB_18D_Misses 79309
XXX BTB_25D_Misses 209825
XXX BTB_46D_Misses 382484
XXX BTB_Ret_Misses 43827
XXX Num_unique_branches 8629
total instructions: 0
wc,tif,trb
6629,32646,129525
190,1246,1879
174,1397,2722
348,3176,4068
9,23,82
24,218,86
3404,20974,43244
6330,22810,115050
2315,17979,27191
4749,38059,50820
752,6233,7497
6962,31476,112674
25,166,333
1533,7757,28264
164,640,3358
18,40,164
4805,43405,59296
220,1886,2930
3429,12179,72515
8,34,46
3401,23232,57025
10,39,91
3062,19840,56548
3214,11252,68978
4543,18214,95043
2388,33905,14455
1667,11682,14787
3124,12579,65373
1538,6102,32129
6,17,74
8185,41274,138133
269,2631,2999
5742,57910,51388
183,176,4267
3216,15248,64816
392,3342,5138
3310,10870,71726
2995,10237,64498
3190,13099,65203
856,2099,19235
242,1441,4526
10,50,80
168,1992,2076
247,1214,4862
347,995,5006
715,5092,5152
539,3090,5441
4668,14261,102319
3060,4612,71724
200,515,1327
35,245,468
8394,46926,108786
8320,47157,104138
6,13,37
160,1078,2045
5174,27831,94857
3105,19757,57720
8,19,61
2027,8591,28639
169,414,3699
6,7,49
8482,34832,123437
6267,52046,80705
187,422,4060
85,419,1586
9658,53001,90219
591,2128,12531
186,1053,3511
4167,28302,52320
395,2178,4833
241,1344,3859
4577,41140,59415
3214,13003,66234
1932,6522,37062
1200,4202,25650
494,4976,3943
3934,16119,73344
442,2862,7125
3226,23373,56041
3848,23634,49262
3149,33164,43994
278,2032,3685
4715,17872,98428
7,54,15
7514,46665,118624
251,2130,2315
5,1,51
13128,52012,170349
12452,78448,100556
20,215,165
8021,65087,65303
7,10,66
3080,12506,64238
6,6,65
3067,13792,62601
5628,43724,76116
3995,14935,79146
721,4683,3805
7226,51446,104823
1437,5739,21284
6,3,61
5607,37028,84839
3052,4578,71622
11884,95825,64327
6,15,56
6,6,30
10685,82474,97439
1705,1091,10070
437,3000,7746
2745,25101,40024
4568,25325,88796
7935,60541,113789
1605,7927,32104
1531,9808,23463
20,160,124
24,95,177
160,867,2154
9225,76655,79791
164,1182,2804
12749,77983,84454
589,4451,6538
341,3227,4029
3007,13516,61453
343,3074,4333
5,2,42
254,2602,2844
9,30,110
379,2339,6121
6007,31269,118807
44,248,366
571,5547,3865
8534,67347,42253
5772,55878,44920
2995,8734,66060
3,2,14
347,1280,7275
69,457,1174
242,1112,2478
1716,15718,24080
109,229,2244
821,3572,12243
181,1624,2270
23,78,339
3219,6463,73848
53,418,286
4874,40327,64311
8,39,41
205,993,3712
772,5674,6497
3130,17626,60504
9268,54963,126077
11744,78779,113320
3,4,16
443,3971,4234
163,638,3331
3,5,27
3295,19607,58870
17,146,127
499,3064,8305
164,1822,2158
318,2077,3515
8,14,66
383,2267,4119
3763,21065,63744
344,1667,5711
192,1147,3445
1774,13111,30171
8,15,65
245,2722,2547
269,1317,5015
325,3003,2836
3292,29233,50630
3830,29527,51917
6,43,69
162,635,3340
711,5783,4324
3052,7637,68543
155,1117,2642
4,6,28
6373,40164,96399
114,1047,868
250,2359,3788
2,1,6
12,40,128
1391,6762,12735
246,2854,2463
1352,9900,13011
554,3606,5776
6085,25897,107945
7671,44225,128909
8,12,141
13463,76527,127756
4570,36438,53007
89,47,1645
8,28,66
6,6,30
550,4941,3419
2065,19785,25523
7733,77086,42741
46,351,651
7,23,32
3064,26370,45810
11,43,68
30,467,163
162,941,3028
273,2874,2802
12,24,100
10,52,66
102,1413,741
12505,106320,71756
7,15,46
18,93,241
334,1016,6410
561,4103,3787
1700,5105,37281
2263,16760,23879
7889,70610,48450
13,30,211
6,9,51
167,497,3612
246,1975,2909
5,11,18
8,17,63
3633,12713,73601
6,19,49
386,1903,5017
47,202,613
6096,25891,108125
2218,5548,49817
678,5285,10836
163,946,3027
6,20,24
6780,60952,68262
3442,11304,71100
370,2152,5001
3157,10806,66565
1962,656,45702
7122,52758,81786
6,28,48
4804,9807,110205
9,40,85
6,7,66
189,807,3668
245,2833,2484
6125,50276,61927
6115,43429,67916
8357,46445,101991
15,122,199
4764,51350,49902
2453,20634,40587
172,506,2602
153,1350,1533
28,171,359
10723,50748,126105
5,14,50
3064,12096,64398
9280,50978,111492
5014,51202,55826
5,8,36
3049,4570,71571
3059,12238,64107
171,612,3537
97,448,1827
347,2732,4367
5798,35216,46971
3137,13740,64565
3,0,21
5576,16188,109910
3522,37948,40930
33,353,178
6,20,31
3016,11358,63826
1532,16788,21374
7,20,53
3405,17269,63540
1313,14252,13561
3061,10699,65721
767,4250,6345
1252,10750,16776
3846,19644,75371
2927,7835,48102
11,50,61
67,687,526
3052,6109,70091
4,10,24
48,365,288
12053,53286,139395
3287,22526,55997
13568,44427,156587
912,6256,4607
3444,23117,58405
12,84,42
11,55,72
3886,23376,46811
713,3634,13081
7,28,33
3130,21483,37407
23,135,268
35,109,646
140,1004,1455
8,36,44
3053,16759,59446
27,218,225
635,4130,7179
2807,8264,60652
6319,52551,56508
8,38,42
181,744,3682
9,63,46
33,162,341
389,2795,3854
71,661,523
371,1827,7389
616,3071,7752
1622,16537,21886
35,218,537
4735,30275,86934
4808,43282,48802
6239,30052,115322
2978,14751,58893
8109,76741,74338
239,1144,4267
15340,108745,85959
12837,82727,105709
3253,6584,74427
4,13,38
803,7872,4002
333,1382,6549
2971,11869,62322
21,154,199
16176,99197,157795
3536,22685,60995
5953,34737,96333
2233,19594,34845
4594,26447,65764
3702,11358,75942
6018,45756,87246
331,1324,5921
323,3422,2399
4166,39462,54888
438,1011,8341
8112,54060,124534
11517,79278,84065
550,2386,6986
3305,13401,68258
3435,12188,70373
4859,29948,67656
4681,20121,96652
3597,25042,61457
3982,20423,78945
3325,40684,37285
6293,36615,99556
5,8,51
418,3750,5001
15128,70635,121188
9641,32055,135937
7223,66027,64344
1685,17557,16038
2467,9196,51369
84,547,660
3269,26512,52400
320,1433,5511
22,167,235
549,2488,6587
7810,43121,130137
9201,72349,78289
1593,4718,34249
60,329,1097
3618,8054,76002
2248,14953,28263
3719,17375,74288
535,4560,7605
1862,19643,22842
7,38,55
754,6466,6030
25,270,153
1986,9409,38705
692,3897,10845
6474,41102,79950
3167,18522,58833
10525,66083,104914
399,3318,4229
7408,34615,120294
6,10,54
884,5272,8392
10,43,53
14,34,226
5269,30057,81699
3229,17160,63369
3077,9343,67276
4900,13261,98431
10120,54512,145134
392,2370,4211
17104,99034,131327
3490,13286,68426
6411,18891,118216
1891,23250,11189
15412,95664,78015
3052,16764,59441
3173,29479,47657
8809,50883,100483
13871,52034,198807
8451,61472,88645
22,115,287
3074,14572,61222
4837,18037,100442
173,1432,2767
2334,16435,40321
16568,88761,150866
74,675,993
364,3526,4018
3028,28470,46494
8286,60964,117610
12006,57479,121051
13398,62580,136025
1105,5009,20126
517,4409,2968
231,1756,3209
30,283,270
3594,12466,73356
5,7,33
656,4743,3479
732,6910,6571
9645,67086,84916
3046,21788,53680
16,118,178
2760,24544,43728
9,24,90
5199,48028,60219
5,5,51
6,14,54
4463,51513,45316
346,2486,4466
165,248,1719
3468,32921,48939
5,13,47
203,1270,3267
3275,10124,70797
3800,27722,58702
6284,52333,84709
7777,55759,87806
10256,77980,82663
4587,43497,55842
763,2757,8921
12127,66838,149766
6560,29230,132784
2659,15246,50119
5198,27214,90053
7,14,41
11093,56042,120783
9649,53684,121406
3602,28556,57263
4704,13252,104228
2248,17496,37882
168,253,3853
4906,50627,53021
2287,7651,48364
6151,50463,61783
7303,52238,80969
17967,92268,196463
6606,21474,84610
5,6,31
4563,30387,69900
5824,13250,118890
22627,125240,177079
3,4,5
3212,6567,73643
2249,3524,47544
25,172,349
382,1815,3078
405,2689,1498
3053,12204,64001
9449,57912,113993
1743,7076,35838
245,2055,2302
4757,30334,70981
3078,9344,67348
17331,107529,160246
11073,85978,73658
347,1466,7105
7760,40230,135138
8,17,63
3339,30236,50356
18732,115356,101759
5358,30072,80806
329,1366,5158
479,4685,2921
4213,14961,90275
7,15,95
6219,43184,91693
7854,45696,89658
10,68,62
4492,28079,70641
9498,50920,123480
3222,15474,64989
334,3202,4073
3521,16728,54374
171,585,3610
3154,5081,73643
1625,15607,23928
163,406,3567
290,1886,2540
3649,28535,57656
290,2785,4181
9,56,65
69,264,1339
3211,20669,58502
256,1828,4426
6523,47628,90168
3864,30139,61515
13243,49403,149574
3243,28559,51381
