Initialize SIGNATURE TABLE
ST_SET: 1
ST_WAY: 256
ST_TAG_BIT: 16
ST_TAG_MASK: ffff

Initialize PATTERN TABLE
PT_SET: 512
PT_WAY: 4
SIG_DELTA_BIT: 7
C_SIG_BIT: 4
C_DELTA_BIT: 4

Initialize PREFETCH FILTER
FILTER_SET: 1024

*** ChampSim Multicore Out-of-Order Simulator ***

Warmup Instructions: 50000000
Simulation Instructions: 50000000
Number of CPUs: 1
LLC sets: 2048
LLC ways: 16
Off-chip DRAM Size: 4096 MB Channels: 1 Width: 64-bit Data Rate: 3200 MT/s

CPU 0 runs /ChampSim-master-BTBX/dpc3_traces/server_022.champsimtrace.xz
Basic BTB sets: 4096 ways: 4 indirect buffer size: 4096 RAS size: 64
CPU 0 L1D next line prefetcher
Heartbeat CPU 0 instructions: 10000002 cycles: 3626003 heartbeat IPC: 2.75786 cumulative IPC: 2.75786 (Simulation time: 0 hr 0 min 19 sec) 
Heartbeat CPU 0 instructions: 20000001 cycles: 7258434 heartbeat IPC: 2.75298 cumulative IPC: 2.75542 (Simulation time: 0 hr 0 min 37 sec) 
Heartbeat CPU 0 instructions: 30000003 cycles: 10884594 heartbeat IPC: 2.75774 cumulative IPC: 2.75619 (Simulation time: 0 hr 0 min 56 sec) 
Heartbeat CPU 0 instructions: 40000003 cycles: 14517890 heartbeat IPC: 2.75232 cumulative IPC: 2.75522 (Simulation time: 0 hr 1 min 14 sec) 
Heartbeat CPU 0 instructions: 50000002 cycles: 18141155 heartbeat IPC: 2.75994 cumulative IPC: 2.75616 (Simulation time: 0 hr 1 min 33 sec) 

Warmup complete CPU 0 instructions: 50000002 cycles: 18141155 (Simulation time: 0 hr 1 min 33 sec) 

Heartbeat CPU 0 instructions: 60000002 cycles: 38029742 heartbeat IPC: 0.502801 cumulative IPC: 0.502801 (Simulation time: 0 hr 1 min 56 sec) 
Heartbeat CPU 0 instructions: 70000001 cycles: 58123241 heartbeat IPC: 0.497673 cumulative IPC: 0.500224 (Simulation time: 0 hr 2 min 19 sec) 
Heartbeat CPU 0 instructions: 80000001 cycles: 77923555 heartbeat IPC: 0.505042 cumulative IPC: 0.50182 (Simulation time: 0 hr 2 min 41 sec) 
Heartbeat CPU 0 instructions: 90000000 cycles: 97991077 heartbeat IPC: 0.498318 cumulative IPC: 0.50094 (Simulation time: 0 hr 3 min 4 sec) 
Heartbeat CPU 0 instructions: 100000000 cycles: 117829438 heartbeat IPC: 0.504074 cumulative IPC: 0.501563 (Simulation time: 0 hr 3 min 26 sec) 
Finished CPU 0 instructions: 50000002 cycles: 99688284 cumulative IPC: 0.501563 (Simulation time: 0 hr 3 min 26 sec) 

ChampSim completed all CPUs

Region of Interest Statistics

CPU 0
XXX cumulative-IPC 0.501563
XXX instructions 50000002
XXX cycles 99688284
L1D TOTAL     ACCESS:   20115481  HIT:   17904140  MISS:    2211341
L1D LOAD      ACCESS:    7691586  HIT:    7008890  MISS:     682696
L1D RFO       ACCESS:    5947257  HIT:    4966574  MISS:     980683
L1D PREFETCH  ACCESS:    6476638  HIT:    5928676  MISS:     547962
L1D WRITEBACK ACCESS:          0  HIT:          0  MISS:          0
L1D PREFETCH  REQUESTED:    7738653  ISSUED:    7576759
XXX L1D-USEFUL 225991
XXX L1D-USELESS 321976
L1D AVERAGE MISS LATENCY: 168.739 cycles
L1I TOTAL     ACCESS:   14677810  HIT:   11558037  MISS:    3119773
L1I LOAD      ACCESS:   10303856  HIT:    8502510  MISS:    1801346
L1I RFO       ACCESS:          0  HIT:          0  MISS:          0
L1I PREFETCH  ACCESS:    4373954  HIT:    3055527  MISS:    1318427
L1I WRITEBACK ACCESS:          0  HIT:          0  MISS:          0
L1I PREFETCH  REQUESTED:    7078805  ISSUED:    7078805
XXX L1I-USEFUL 785438
XXX L1I-USELESS 532987
L1I AVERAGE MISS LATENCY: 15.3217 cycles
L2C TOTAL     ACCESS:    8236124  HIT:    6338739  MISS:    1897385
L2C LOAD      ACCESS:    2064363  HIT:    1752725  MISS:     311638
L2C RFO       ACCESS:     980083  HIT:      19627  MISS:     960456
L2C PREFETCH  ACCESS:    4006131  HIT:    3383585  MISS:     622546
L2C WRITEBACK ACCESS:    1185547  HIT:    1182802  MISS:       2745
L2C PREFETCH  REQUESTED:    4715344  ISSUED:    4711859
XXX L2C-USEFUL 36717
XXX L2C-USELESS 585812
L2C AVERAGE MISS LATENCY: 199.624 cycles
LLC TOTAL     ACCESS:    4022507  HIT:    2622296  MISS:    1400211
LLC LOAD      ACCESS:     311541  HIT:     229151  MISS:      82390
LLC RFO       ACCESS:     960399  HIT:     144171  MISS:     816228
LLC PREFETCH  ACCESS:    1630852  HIT:    1131336  MISS:     499516
LLC WRITEBACK ACCESS:    1119715  HIT:    1117638  MISS:       2077
LLC PREFETCH  REQUESTED:          0  ISSUED:          0
XXX LLC-USEFUL 31481
XXX LLC-USELESS 467859
LLC AVERAGE MISS LATENCY: 271.067 cycles
Major fault: 0 Minor fault: 23508
XXX disp-0 1834542
XXX disp-1 0
XXX disp-2 0
XXX disp-3 838773
XXX disp-4 846490
XXX disp-5 1134289
XXX disp-6 1432807
XXX disp-7 641191
XXX disp-8 618575
XXX disp-9 394470
XXX disp-10 247164
XXX disp-11 210640
XXX disp-12 129004
XXX disp-13 130166
XXX disp-14 126318
XXX disp-15 143505
XXX disp-16 207046
XXX disp-17 72929
XXX disp-18 215578
XXX disp-19 169964
XXX disp-20 102876
XXX disp-21 32646
XXX disp-22 9847
XXX disp-23 202670
XXX disp-24 0
XXX disp-25 0
XXX disp-26 0
XXX disp-27 0
XXX disp-28 0
XXX disp-29 0
XXX disp-30 0
XXX disp-31 0
XXX disp-32 0
XXX disp-33 0
XXX disp-34 0
XXX disp-35 0
XXX disp-36 0
XXX disp-37 0
XXX disp-38 0
XXX disp-39 0
XXX disp-40 0
XXX disp-41 0
XXX disp-42 0
XXX disp-43 0
XXX disp-44 0
XXX disp-45 0
XXX disp-46 97698
XXX disp-47 0
XXX disp-48 0
XXX disp-49 0
XXX disp-50 0
XXX disp-51 0
XXX disp-52 0
XXX disp-53 0
XXX disp-54 0
XXX disp-55 0
XXX disp-56 0
XXX disp-57 0
XXX disp-58 0
XXX disp-59 0
XXX disp-60 0
XXX disp-61 0
XXX disp-62 0
XXX disp-63 0
XXX disp-64 0
XXX disp-65 0
XXX diffBits-0 1834542
XXX diffBits-1 0
XXX diffBits-2 710416
XXX diffBits-3 455060
XXX diffBits-4 420760
XXX diffBits-5 1092015
XXX diffBits-6 768347
XXX diffBits-7 585878
XXX diffBits-8 574570
XXX diffBits-9 1018927
XXX diffBits-10 307925
XXX diffBits-11 353988
XXX diffBits-12 109005
XXX diffBits-13 135473
XXX diffBits-14 103905
XXX diffBits-15 144737
XXX diffBits-16 327207
XXX diffBits-17 35914
XXX diffBits-18 118647
XXX diffBits-19 307821
XXX diffBits-20 101690
XXX diffBits-21 31804
XXX diffBits-22 202859
XXX diffBits-23 0
XXX diffBits-24 0
XXX diffBits-25 0
XXX diffBits-26 0
XXX diffBits-27 0
XXX diffBits-28 0
XXX diffBits-29 0
XXX diffBits-30 0
XXX diffBits-31 0
XXX diffBits-32 0
XXX diffBits-33 0
XXX diffBits-34 0
XXX diffBits-35 0
XXX diffBits-36 0
XXX diffBits-37 0
XXX diffBits-38 0
XXX diffBits-39 0
XXX diffBits-40 0
XXX diffBits-41 0
XXX diffBits-42 0
XXX diffBits-43 0
XXX diffBits-44 0
XXX diffBits-45 97698
XXX diffBits-46 0
XXX diffBits-47 0
XXX diffBits-48 0
XXX diffBits-49 0
XXX diffBits-50 0
XXX diffBits-51 0
XXX diffBits-52 0
XXX diffBits-53 0
XXX diffBits-54 0
XXX diffBits-55 0
XXX diffBits-56 0
XXX diffBits-57 0
XXX diffBits-58 0
XXX diffBits-59 0
XXX diffBits-60 0
XXX diffBits-61 0
XXX diffBits-62 0
XXX diffBits-63 0
XXX diffBits-64 0
XXX diffBits-65 0
CPU 0 L1D next line prefetcher final stats

DRAM Statistics
 CHANNEL 0
 RQ ROW_BUFFER_HIT:     425095  ROW_BUFFER_MISS:     972855
 DBUS_CONGESTED:    1310508
 WQ ROW_BUFFER_HIT:     250094  ROW_BUFFER_MISS:     652295  FULL:          0

 AVG_CONGESTED_CYCLE: 6

CPU 0 Branch Prediction Accuracy: 94.9068% MPKI: 8.3414 Average ROB Occupancy at Mispredict: 67.2843

XXX total_mispredicts 417070
XXX total_target_mispredicts1 285838
XXX total_target_mispredicts2 2345
XXX total_direction_mispredicts 128887
XXX mispredict_on_btb_hit 269161
XXX NOT_BRANCH: 0
XXX BRANCH_DIRECT_JUMP: 1120
XXX BRANCH_INDIRECT: 0
XXX BRANCH_CONDITIONAL: 0
XXX BRANCH_DIRECT_CALL: 261
XXX BRANCH_INDIRECT_CALL: 29433
XXX BRANCH_RETURN: 238347
XXX BRANCH_OTHER: 0
Branch types
NOT_BRANCH: 41810957 83.6219%
BRANCH_DIRECT_JUMP: 445734 0.891468%
BRANCH_INDIRECT: 48875 0.09775%
BRANCH_CONDITIONAL: 5859368 11.7187%
BRANCH_DIRECT_CALL: 758261 1.51652%
BRANCH_INDIRECT_CALL: 159103 0.318206%
BRANCH_RETURN: 917366 1.83473%
BRANCH_OTHER: 0 0%

XXX BTB_reads: 5007468
XXX BTB_writes: 18413
XXX PageBTB_reads: 0
XXX PageBTB_writes: 0
XXX PageBTB_readsBeforeWrite: 0
XXX RegionBTB_reads: 0
XXX RegionBTB_writes: 0
XXX RegionBTB_readsBeforeWrite: 0
XXX BTB_4D_Hits 788943
XXX BTB_6D_Hits 930510
XXX BTB_8D_Hits 1090100
XXX BTB_12D_Hits 450583
XXX BTB_18D_Hits 567046
XXX BTB_25D_Hits 116698
XXX BTB_46D_Hits 37938
XXX BTB_Ret_Hits 917295
XXX BTB_4D_Misses 65
XXX BTB_6D_Misses 47
XXX BTB_8D_Misses 290
XXX BTB_12D_Misses 505
XXX BTB_18D_Misses 1005
XXX BTB_25D_Misses 4355
XXX BTB_46D_Misses 12075
XXX BTB_Ret_Misses 71
XXX Num_unique_branches 4564
total instructions: 0
wc,tif,trb
4,10,45
11,51,84
11,45,123
8,17,63
4,8,27
7,12,43
8,31,49
4,10,24
16,75,121
81,444,1463
82,637,1045
12,51,209
20,106,262
11,52,107
10,15,87
6,21,48
110,313,1759
6,23,13
6,16,44
7,24,47
13,85,102
5,4,23
8,18,84
6,7,29
9,34,91
6,14,30
15,62,111
4,13,28
8,36,60
18,89,205
22,151,307
6,23,32
8,14,66
9,38,89
5,13,42
9,30,61
6,24,54
4,9,26
6,13,38
8,19,61
12,57,53
131,870,2001
5,9,22
7,24,45
10,24,126
7,11,44
8,18,90
25,271,110
23,119,316
2454,16164,31401
4,11,40
123,492,850
10,69,55
7,28,72
6,16,35
11,63,91
7,18,57
7,11,69
7,53,59
5,5,34
8,48,32
6,36,35
6,13,62
2,0,7
7,34,21
7,11,62
3,13,30
4,0,30
8,57,23
5,11,56
8,27,91
10,50,104
6,12,54
6,18,18
5,7,51
10,48,52
12,48,149
6,12,48
6,35,41
7,33,102
6,13,71
3,5,30
10,28,66
6,33,31
499,4125,6768
5,23,41
14,89,117
10,27,103
10,43,87
22,179,193
4,8,19
8,25,55
13,64,149
3,16,35
8,40,40
15,92,167
6,13,52
4,2,28
3,5,23
17,52,290
10,40,98
7,21,63
8,41,39
8,28,52
7,31,44
8,26,54
7,33,42
7,30,46
4,10,30
5,6,25
8,26,89
7,38,38
5,11,41
66,384,954
5,9,34
48,306,811
5,12,59
5,14,34
7,16,59
9,45,76
8,26,62
5,16,30
5,13,30
8,39,88
18,64,279
15,123,128
11,34,113
80,654,1031
27,183,366
9,51,60
7,19,36
7,16,39
82,581,316
5,6,43
4,4,26
8,21,59
8,37,43
6,25,48
4,6,18
6,16,20
16,58,141
13,81,86
12,24,159
10,51,73
6,19,31
5,8,54
7,41,60
8,25,55
69,428,672
58,489,410
5,12,13
11,72,71
10,65,78
9,43,116
3,1,20
4,6,46
13,86,75
6,23,37
47,166,730
20,158,133
16,120,114
6,8,56
8,51,49
9,23,100
6,16,44
4,4,12
6,26,79
14,49,200
4,11,36
6,12,32
10,64,60
6,14,38
10,58,93
9,50,51
4,7,49
8,20,80
7,10,88
17,100,119
4,10,24
7,33,42
6,25,31
6,9,46
3,7,20
13,24,109
13,32,139
8,26,54
4,8,37
5,7,50
7,24,51
9,28,120
4,6,45
5,9,16
26,189,249
9,22,83
7,40,40
5,23,45
13,65,141
7,9,46
4,9,7
6,8,46
6,27,17
16,72,213
13,79,84
4,21,32
11,24,172
6,11,50
7,26,43
6,15,36
11,63,66
18,109,133
3,3,25
12,78,102
5,17,53
4,10,26
7,11,58
15,98,158
7,21,34
10,32,63
8,22,58
8,32,48
11,76,99
4,12,27
4,5,15
10,52,107
4,7,36
7,18,58
5,8,36
5,9,34
11,32,129
8,42,38
15,68,196
5,9,26
8,33,47
41,219,657
14,91,99
13,81,108
4,11,65
17,74,127
6,20,56
7,22,47
7,27,52
6,24,65
7,24,57
11,39,113
8,42,38
9,59,60
5,16,11
7,13,62
14,73,105
2,1,19
7,20,53
5,4,39
25,189,190
5,5,38
7,28,93
6,14,54
35,266,265
7,24,56
4,5,34
6,12,38
4,15,33
12,33,204
6,6,62
5,9,36
11,45,58
5,10,31
6,8,54
24,143,199
10,38,92
7,16,53
6,19,41
6,12,49
149,1023,2213
13,35,132
17,103,114
9,38,65
38,142,613
16,84,136
10,24,106
4,29,35
5,27,37
7,22,53
13,67,123
6,13,62
5,9,43
6,12,24
35,153,386
4,9,21
12,48,118
8,38,42
11,37,90
9,19,56
7,30,25
9,47,79
8,22,58
5,17,28
6,38,70
8,66,55
9,41,118
10,48,85
11,66,72
10,27,112
8,30,71
10,70,68
7,25,44
321,1789,4730
3,2,21
11,36,136
7,27,46
4,11,27
9,37,105
6,17,33
10,66,77
5,31,40
8,24,77
11,47,80
7,15,54
4,17,47
6,14,88
5,16,55
3,8,20
10,36,94
8,19,75
12,88,112
8,27,74
3,2,14
8,28,52
7,18,43
13,77,103
6,18,58
14,52,178
11,82,67
7,26,85
5,10,41
239,1605,4012
18,102,176
6,17,47
4,10,45
8,37,43
85,392,1415
6,19,31
91,452,1413
334,2140,4678
7,25,51
5,11,14
5,11,20
14,45,185
9,38,81
65,173,600
8,39,41
11,75,106
9,58,88
5,30,46
2,0,19
13,89,74
8,17,63
36,334,200
19,119,146
5,10,15
10,53,77
4,12,44
6,1,43
113,916,1133
2,1,23
16,74,141
8,32,48
8,53,27
9,21,93
7,15,40
729,4521,8999
7,24,52
8,30,50
8,30,50
10,38,92
8,40,40
11,61,96
4,6,27
7,11,65
6,8,40
7,20,49
100,745,775
4,25,39
5,8,56
0,0,0
13,49,181
6,8,28
11,32,153
18,116,239
2,1,15
8,24,56
4,15,69
7,12,61
5,29,40
13,85,86
7,15,40
12,47,187
7,7,66
9,50,69
4,6,29
4,2,37
15,117,120
12,53,119
13,48,173
8,30,50
10,27,127
207,533,2513
10,65,87
4,8,54
11,81,88
9,42,71
8,27,53
7,27,28
18,105,170
14,52,196
18,158,171
6,9,55
7,36,19
9,17,72
14,58,146
6,20,55
5,7,45
5,17,48
7,9,67
27,160,208
1,0,0
3,10,38
7,12,86
2,6,13
11,56,159
7,13,56
8,24,56
6,37,39
10,37,83
72,282,1428
7,7,54
10,23,95
9,30,120
6,13,59
10,50,64
5,7,24
531,3892,7287
13,94,83
6,51,73
5,14,65
27,128,303
3,1,23
7,16,53
6,16,60
6,9,51
8,47,33
137,748,2485
6,17,52
48,287,628
11,52,117
8,43,37
12,44,138
10,77,86
10,30,134
284,2212,4722
530,4323,4423
12,29,161
5,15,50
10,44,108
12,90,95
6,9,55
5,10,26
3,3,13
8,32,56
6,13,63
8,34,83
31,134,381
5,7,38
5,16,48
255,1860,2575
7,9,59
11,33,96
72,620,806
10,58,66
10,42,88
18,67,155
4,7,29
4,3,36
7,22,49
390,3296,4415
6,10,34
7,27,28
17,121,81
4,4,37
7,26,43
466,2911,6789
12,41,113
13,60,111
6,16,51
23,148,71
10,28,127
5,13,47
12,71,77
7,15,66
9,12,113
15,80,115
4,6,33
32,125,501
25,139,198
4,16,35
9,32,82
4,15,45
166,1258,2026
3,7,29
15,88,177
10,83,129
6,24,47
6,17,54
