Initialize SIGNATURE TABLE
ST_SET: 1
ST_WAY: 256
ST_TAG_BIT: 16
ST_TAG_MASK: ffff

Initialize PATTERN TABLE
PT_SET: 512
PT_WAY: 4
SIG_DELTA_BIT: 7
C_SIG_BIT: 4
C_DELTA_BIT: 4

Initialize PREFETCH FILTER
FILTER_SET: 1024

*** ChampSim Multicore Out-of-Order Simulator ***

Warmup Instructions: 50000000
Simulation Instructions: 50000000
Number of CPUs: 1
LLC sets: 2048
LLC ways: 16
Off-chip DRAM Size: 4096 MB Channels: 1 Width: 64-bit Data Rate: 3200 MT/s

CPU 0 runs /ChampSim-master-BTBX/dpc3_traces/server_003.champsimtrace.xz
Basic BTB sets: 4096 ways: 4 indirect buffer size: 4096 RAS size: 64
CPU 0 L1D next line prefetcher
Heartbeat CPU 0 instructions: 10000002 cycles: 3217599 heartbeat IPC: 3.10791 cumulative IPC: 3.10791 (Simulation time: 0 hr 0 min 18 sec) 
Heartbeat CPU 0 instructions: 20000000 cycles: 6532005 heartbeat IPC: 3.01713 cumulative IPC: 3.06185 (Simulation time: 0 hr 0 min 37 sec) 
Heartbeat CPU 0 instructions: 30000000 cycles: 9736246 heartbeat IPC: 3.12086 cumulative IPC: 3.08127 (Simulation time: 0 hr 0 min 54 sec) 
Heartbeat CPU 0 instructions: 40000001 cycles: 13149411 heartbeat IPC: 2.92983 cumulative IPC: 3.04196 (Simulation time: 0 hr 1 min 13 sec) 
Heartbeat CPU 0 instructions: 50000002 cycles: 16867835 heartbeat IPC: 2.68931 cumulative IPC: 2.96422 (Simulation time: 0 hr 1 min 32 sec) 

Warmup complete CPU 0 instructions: 50000002 cycles: 16867835 (Simulation time: 0 hr 1 min 32 sec) 

Heartbeat CPU 0 instructions: 60000000 cycles: 30049246 heartbeat IPC: 0.758644 cumulative IPC: 0.758644 (Simulation time: 0 hr 1 min 52 sec) 
Heartbeat CPU 0 instructions: 70000003 cycles: 42391051 heartbeat IPC: 0.810255 cumulative IPC: 0.7836 (Simulation time: 0 hr 2 min 12 sec) 
Heartbeat CPU 0 instructions: 80000000 cycles: 56834570 heartbeat IPC: 0.692352 cumulative IPC: 0.750624 (Simulation time: 0 hr 2 min 31 sec) 
Heartbeat CPU 0 instructions: 90000001 cycles: 71612618 heartbeat IPC: 0.676679 cumulative IPC: 0.730663 (Simulation time: 0 hr 2 min 51 sec) 
Heartbeat CPU 0 instructions: 100000001 cycles: 86954602 heartbeat IPC: 0.651806 cumulative IPC: 0.713401 (Simulation time: 0 hr 3 min 11 sec) 
Finished CPU 0 instructions: 50000003 cycles: 70086768 cumulative IPC: 0.713401 (Simulation time: 0 hr 3 min 11 sec) 

ChampSim completed all CPUs

Region of Interest Statistics

CPU 0
XXX cumulative-IPC 0.713401
XXX instructions 50000003
XXX cycles 70086768
L1D TOTAL     ACCESS:   20844134  HIT:   19701978  MISS:    1142156
L1D LOAD      ACCESS:    8228868  HIT:    7707500  MISS:     521368
L1D RFO       ACCESS:    4622899  HIT:    4506185  MISS:     116714
L1D PREFETCH  ACCESS:    7992367  HIT:    7488293  MISS:     504074
L1D WRITEBACK ACCESS:          0  HIT:          0  MISS:          0
L1D PREFETCH  REQUESTED:    8288547  ISSUED:    8199733
XXX L1D-USEFUL 165198
XXX L1D-USELESS 338836
L1D AVERAGE MISS LATENCY: 52.4611 cycles
L1I TOTAL     ACCESS:   13861575  HIT:   12807850  MISS:    1053725
L1I LOAD      ACCESS:    9346361  HIT:    8736790  MISS:     609571
L1I RFO       ACCESS:          0  HIT:          0  MISS:          0
L1I PREFETCH  ACCESS:    4515214  HIT:    4071060  MISS:     444154
L1I WRITEBACK ACCESS:          0  HIT:          0  MISS:          0
L1I PREFETCH  REQUESTED:    5571804  ISSUED:    5571804
XXX L1I-USEFUL 287713
XXX L1I-USELESS 156405
L1I AVERAGE MISS LATENCY: 21.4038 cycles
L2C TOTAL     ACCESS:    3070591  HIT:    2074740  MISS:     995851
L2C LOAD      ACCESS:     776119  HIT:     516593  MISS:     259526
L2C RFO       ACCESS:     114125  HIT:      40826  MISS:      73299
L2C PREFETCH  ACCESS:    1895936  HIT:    1233873  MISS:     662063
L2C WRITEBACK ACCESS:     284411  HIT:     283448  MISS:        963
L2C PREFETCH  REQUESTED:    2104018  ISSUED:    2103942
XXX L2C-USEFUL 64891
XXX L2C-USELESS 594760
L2C AVERAGE MISS LATENCY: 73.4127 cycles
LLC TOTAL     ACCESS:    1759456  HIT:    1396325  MISS:     363131
LLC LOAD      ACCESS:     259359  HIT:     200747  MISS:      58612
LLC RFO       ACCESS:      73298  HIT:      32624  MISS:      40674
LLC PREFETCH  ACCESS:    1262431  HIT:     999825  MISS:     262606
LLC WRITEBACK ACCESS:     164368  HIT:     163129  MISS:       1239
LLC PREFETCH  REQUESTED:          0  ISSUED:          0
XXX LLC-USEFUL 35418
XXX LLC-USELESS 215487
LLC AVERAGE MISS LATENCY: 173.366 cycles
Major fault: 0 Minor fault: 7774
XXX disp-0 2059667
XXX disp-1 0
XXX disp-2 2439
XXX disp-3 779776
XXX disp-4 967507
XXX disp-5 909629
XXX disp-6 971915
XXX disp-7 833408
XXX disp-8 581820
XXX disp-9 435143
XXX disp-10 217454
XXX disp-11 118091
XXX disp-12 89627
XXX disp-13 79117
XXX disp-14 124906
XXX disp-15 106714
XXX disp-16 60306
XXX disp-17 51871
XXX disp-18 118759
XXX disp-19 149159
XXX disp-20 234495
XXX disp-21 349441
XXX disp-22 416955
XXX disp-23 86062
XXX disp-24 109867
XXX disp-25 49842
XXX disp-26 13737
XXX disp-27 281
XXX disp-28 14360
XXX disp-29 0
XXX disp-30 0
XXX disp-31 0
XXX disp-32 0
XXX disp-33 0
XXX disp-34 0
XXX disp-35 0
XXX disp-36 0
XXX disp-37 0
XXX disp-38 0
XXX disp-39 0
XXX disp-40 0
XXX disp-41 0
XXX disp-42 0
XXX disp-43 0
XXX disp-44 0
XXX disp-45 0
XXX disp-46 0
XXX disp-47 0
XXX disp-48 0
XXX disp-49 0
XXX disp-50 0
XXX disp-51 0
XXX disp-52 0
XXX disp-53 0
XXX disp-54 0
XXX disp-55 0
XXX disp-56 0
XXX disp-57 0
XXX disp-58 0
XXX disp-59 0
XXX disp-60 0
XXX disp-61 0
XXX disp-62 0
XXX disp-63 24
XXX disp-64 0
XXX disp-65 0
XXX diffBits-0 2059667
XXX diffBits-1 1759
XXX diffBits-2 278787
XXX diffBits-3 544538
XXX diffBits-4 786382
XXX diffBits-5 824451
XXX diffBits-6 832623
XXX diffBits-7 795993
XXX diffBits-8 596669
XXX diffBits-9 589771
XXX diffBits-10 208391
XXX diffBits-11 126403
XXX diffBits-12 200706
XXX diffBits-13 135709
XXX diffBits-14 89526
XXX diffBits-15 72713
XXX diffBits-16 187938
XXX diffBits-17 51629
XXX diffBits-18 99919
XXX diffBits-19 214569
XXX diffBits-20 205648
XXX diffBits-21 138231
XXX diffBits-22 129166
XXX diffBits-23 682940
XXX diffBits-24 0
XXX diffBits-25 63579
XXX diffBits-26 0
XXX diffBits-27 14641
XXX diffBits-28 0
XXX diffBits-29 0
XXX diffBits-30 0
XXX diffBits-31 0
XXX diffBits-32 0
XXX diffBits-33 0
XXX diffBits-34 0
XXX diffBits-35 0
XXX diffBits-36 0
XXX diffBits-37 0
XXX diffBits-38 0
XXX diffBits-39 0
XXX diffBits-40 0
XXX diffBits-41 0
XXX diffBits-42 0
XXX diffBits-43 0
XXX diffBits-44 0
XXX diffBits-45 0
XXX diffBits-46 0
XXX diffBits-47 0
XXX diffBits-48 0
XXX diffBits-49 0
XXX diffBits-50 0
XXX diffBits-51 0
XXX diffBits-52 0
XXX diffBits-53 0
XXX diffBits-54 0
XXX diffBits-55 0
XXX diffBits-56 0
XXX diffBits-57 0
XXX diffBits-58 0
XXX diffBits-59 0
XXX diffBits-60 0
XXX diffBits-61 0
XXX diffBits-62 24
XXX diffBits-63 0
XXX diffBits-64 0
XXX diffBits-65 0
CPU 0 L1D next line prefetcher final stats

DRAM Statistics
 CHANNEL 0
 RQ ROW_BUFFER_HIT:      79159  ROW_BUFFER_MISS:     282728
 DBUS_CONGESTED:     159914
 WQ ROW_BUFFER_HIT:      23030  ROW_BUFFER_MISS:      79765  FULL:          0

 AVG_CONGESTED_CYCLE: 5

CPU 0 Branch Prediction Accuracy: 88.9878% MPKI: 21.7949 Average ROB Occupancy at Mispredict: 50.9637

XXX total_mispredicts 1089744
XXX total_target_mispredicts1 615028
XXX total_target_mispredicts2 147432
XXX total_direction_mispredicts 327284
XXX mispredict_on_btb_hit 429463
XXX NOT_BRANCH: 0
XXX BRANCH_DIRECT_JUMP: 3695
XXX BRANCH_INDIRECT: 21399
XXX BRANCH_CONDITIONAL: 0
XXX BRANCH_DIRECT_CALL: 2605
XXX BRANCH_INDIRECT_CALL: 137919
XXX BRANCH_RETURN: 263845
XXX BRANCH_OTHER: 0
Branch types
NOT_BRANCH: 40103830 80.2077%
BRANCH_DIRECT_JUMP: 497927 0.995854%
BRANCH_INDIRECT: 130586 0.261172%
BRANCH_CONDITIONAL: 7218977 14.438%
BRANCH_DIRECT_CALL: 625806 1.25161%
BRANCH_INDIRECT_CALL: 389785 0.77957%
BRANCH_RETURN: 1032743 2.06549%
BRANCH_OTHER: 0 0%

XXX BTB_reads: 14282604
XXX BTB_writes: 328256
XXX PageBTB_reads: 0
XXX PageBTB_writes: 0
XXX PageBTB_readsBeforeWrite: 0
XXX RegionBTB_reads: 0
XXX RegionBTB_writes: 0
XXX RegionBTB_readsBeforeWrite: 0
XXX BTB_4D_Hits 749767
XXX BTB_6D_Hits 813293
XXX BTB_8D_Hits 987126
XXX BTB_12D_Hits 321135
XXX BTB_18D_Hits 395190
XXX BTB_25D_Hits 463505
XXX BTB_46D_Hits 5412
XXX BTB_Ret_Hits 1002115
XXX BTB_4D_Misses 59263
XXX BTB_6D_Misses 17965
XXX BTB_8D_Misses 39487
XXX BTB_12D_Misses 34374
XXX BTB_18D_Misses 22210
XXX BTB_25D_Misses 53312
XXX BTB_46D_Misses 71017
XXX BTB_Ret_Misses 30628
XXX Num_unique_branches 46193
total instructions: 0
wc,tif,trb
863,4435,12449
1909,10636,17254
1303,9214,10738
1327,7103,12320
662,3574,9210
756,4633,6339
2396,12606,20522
574,3285,4501
813,4836,8742
1375,8052,9556
1221,6957,11038
1117,5488,13969
2127,15859,12435
740,5185,7476
1217,5978,13909
609,3612,5425
1839,10318,14347
563,3535,4500
1265,6959,11830
1255,6503,12101
631,4072,4594
1283,5743,16048
1409,8924,9431
672,4097,5843
1170,6833,8661
707,3751,7557
1435,8173,13330
1415,8201,11625
1211,7573,9129
1259,6865,11915
1478,9504,15597
840,5855,6779
1638,9181,17414
1447,8063,16674
466,2534,6681
1193,8897,6701
1367,7467,13267
1216,7874,9302
545,2709,7105
2140,10507,17228
1378,8648,10556
353,2206,4564
1048,7432,6554
612,3402,6757
1922,8119,17740
1887,10050,19198
961,5338,8485
1494,8634,14670
1293,8343,8276
1711,9942,11749
1023,6001,7351
2003,11650,19178
819,4209,11159
928,4419,10766
425,2076,6101
1744,9405,17410
1410,7342,12617
719,3417,8901
592,3592,5849
1773,10587,14572
1520,6781,15372
1700,9775,13254
1553,8834,15554
1879,8554,21840
1189,7879,10914
1489,11858,9304
1458,7504,15922
1213,6951,8401
547,2427,7794
1601,8567,15047
1477,8806,9265
964,5689,7804
1132,6197,11493
1523,11189,6695
1505,6674,15005
615,3196,6300
385,2054,4143
509,2165,7363
1388,8365,11756
1198,5901,12550
1171,7671,9621
1275,6647,10618
937,4974,10492
1858,9403,16681
2750,15397,20878
539,3184,7754
1127,4900,16489
762,4680,8331
1204,6283,12780
1759,7818,18414
1111,5461,11890
1068,5004,12912
1923,12078,13920
1500,8471,12930
1737,10650,16624
1210,7532,10344
1136,5396,15173
951,5430,8173
1627,9853,12492
676,3028,10907
2075,11202,15295
1384,6683,13321
1000,5253,9706
1329,7823,11554
1824,9185,13148
963,4549,11768
1271,7629,11536
542,2748,6603
547,2608,7996
1144,6058,9386
892,4231,10455
1204,7923,8411
1077,6720,10391
2058,10959,20398
1029,4825,13034
1369,7795,13543
993,5279,11288
1819,11214,14631
1754,9848,14452
916,4303,10004
957,6841,7339
1687,10620,12451
1203,6221,15567
1782,11602,15540
1814,10231,20923
1745,9789,15463
1080,5832,12410
1846,10179,20242
1721,9879,13116
1644,11253,10896
1065,5184,14644
1539,7412,14818
1942,10498,18432
1271,6741,9932
947,5716,9592
2011,12775,14987
1204,9832,7168
881,4482,9655
1142,6366,12659
1279,5728,11229
462,2401,5585
795,4737,6758
1498,7360,15722
982,4782,12371
1249,7892,7138
1405,7798,11126
1000,6216,8853
1264,7716,8799
1503,8516,11626
1786,12449,13016
722,3161,9504
827,3547,10384
1037,4884,11745
1591,11090,9273
1293,7062,15232
2455,11414,18532
1337,7065,15796
861,5013,9239
2031,9942,22463
917,4676,10021
1737,11294,11693
1018,5555,12756
1951,11459,13993
2048,13159,15274
2263,11944,17882
291,1420,4371
1682,10876,14560
1978,7526,18561
1192,8679,10278
1156,6518,11584
1420,6618,15666
1654,10629,12357
1066,5368,12354
1112,5114,15856
879,3776,9444
1360,7561,13122
1299,7851,9754
1787,9619,20332
617,2303,10399
1094,5246,12273
1497,5510,15289
607,3387,7797
919,4500,10976
1498,5553,16459
1247,7857,12776
1409,6705,14910
1847,11464,13215
1160,5665,11798
1505,9945,11685
1254,4966,16096
1053,7086,9635
1067,4329,15815
1309,6935,11206
1585,7170,15367
712,4233,7110
1748,8729,14378
920,4118,12846
897,3729,11488
671,3461,7006
942,4460,11011
916,4700,9465
1315,8365,11517
1017,4735,11513
2088,10436,18727
1367,6962,18042
1463,8122,13913
682,3572,9574
1190,5549,11112
1128,7489,10338
1280,7057,13028
1345,7756,11562
1311,5963,12424
1087,6647,7136
1519,7392,12060
1653,7299,17639
1691,7009,18796
2251,13608,17148
1242,7502,16477
1175,5932,14721
1315,6279,18092
695,3658,8476
1830,12737,11103
1080,4876,11186
2366,13997,19480
1856,11567,13501
1976,11892,14786
629,3848,7043
1667,8745,12284
2415,16712,14476
1225,7928,10184
1164,5974,12113
966,3867,12378
1000,7579,5328
1206,6484,12807
1456,7438,17427
2528,13495,27330
749,4255,6286
2191,11001,24838
1413,8306,12046
1727,12318,12834
389,2244,4010
1878,9166,16226
926,5543,8733
1909,9010,17671
1591,7562,15595
954,3007,15071
1104,6449,11077
1467,7766,11718
719,4407,5895
1806,11015,10609
1741,9506,14105
1685,7004,15991
1074,5460,15308
1446,8515,9356
1034,6053,10939
2458,13302,30410
2073,9323,21201
1088,6765,9425
1629,10990,10446
778,5673,4776
679,2966,10130
2017,9410,17680
1658,9141,14906
903,6101,5292
1391,10079,8269
633,3428,4472
691,3749,8001
657,2674,11386
633,2825,7309
623,2823,6269
1327,7606,10548
870,4059,7994
1924,12939,11574
1305,7027,12074
1079,5729,10257
1881,10329,12522
1478,7527,18272
1946,10940,15675
2154,9618,16245
1683,7948,14447
602,3049,9383
1150,6855,8855
867,4758,12439
2463,12806,17807
1356,9592,10347
1077,4748,11529
1404,8548,12245
1045,5426,11457
860,5140,8642
2228,12201,22430
414,2082,5513
1571,8536,11063
1366,6897,13285
1555,6453,19180
1728,7958,15979
1706,9447,17848
1302,6690,13887
1608,11388,8419
987,4083,12098
1395,6734,18581
1942,13254,12366
1150,6637,10715
1190,5468,13638
1891,9934,15040
1072,5225,12335
1352,8240,9879
971,4383,15046
2952,17894,20667
1087,5593,12037
1625,6406,18646
1040,5229,13475
2288,11936,20207
1415,7606,11761
788,4501,8337
681,3878,8247
1703,7630,20563
1547,7694,17881
1454,5908,17226
2078,9977,23238
2137,11777,17360
1532,8424,14869
916,5437,7408
2226,16902,9307
2062,12330,15272
855,4179,8954
494,2347,5553
1342,7124,13571
674,3332,8515
929,3281,12821
1763,9912,12229
1201,6821,11207
2172,11968,20110
783,3811,9778
1842,9118,16983
2122,12157,17271
728,4728,8055
942,5698,10969
1355,7432,13266
1141,7230,8261
529,3435,5223
679,3763,6547
2195,10788,19818
1673,8239,13727
1964,10048,14192
2393,13718,16557
1468,9253,11559
2285,8033,24726
1713,13320,10378
1938,10888,16876
1840,11095,15842
1275,8268,10957
1285,6935,14283
915,4302,10082
1215,6902,15280
854,4174,9280
1638,10754,10418
572,2331,8240
683,4188,6977
1579,7110,16949
1063,4937,8980
622,3204,7201
1497,8483,11377
1805,7725,18779
1207,5768,11900
799,3267,10357
1598,8104,14878
1210,6778,8152
1827,11042,16195
625,3100,7676
2265,12201,17314
869,5352,7415
2820,14660,26455
1535,7744,14577
1483,8314,12959
797,4090,11676
1296,7246,11995
1503,9681,9373
1800,13431,9718
1192,6899,10447
1377,7911,10626
1502,8723,14102
1360,7457,12508
1149,6105,13977
1570,9584,12643
754,4445,5662
888,4580,11202
1555,8616,12192
1311,7429,12489
1204,6215,11663
1416,7032,14218
1115,5542,13328
1226,6211,10104
701,4105,7817
1164,8207,8936
951,5295,9052
841,3303,13234
906,5217,7770
1072,6961,8731
1171,6832,14203
1396,5983,16041
1201,6724,12070
1718,11543,10510
947,5070,11286
1731,9146,13770
1395,7587,15183
969,5735,8666
1569,8066,23382
1291,6783,17520
1082,6131,11369
1757,9397,15789
1282,6414,16564
1425,6276,17964
1292,6832,14448
1523,7398,16460
1866,10433,20430
1336,6464,14419
1155,4474,14715
1482,6694,17324
1847,10054,15909
907,4743,10942
500,2661,5678
719,4987,5510
1242,7966,7144
2199,10256,20549
1499,8058,14089
1302,6365,14281
976,4759,10023
2771,13834,29309
1780,9419,16698
1154,6985,11423
1106,5556,14560
1270,5592,11791
1941,11731,15335
1184,6554,13769
1766,8866,19055
2289,9506,25161
1206,6202,10654
1798,12223,13151
803,3972,10850
1163,4942,11459
1430,6061,16536
1322,6561,14194
1021,5755,9943
1653,9833,13381
711,4258,8070
1463,9194,10895
1157,5322,15218
1337,9574,12631
1374,11424,8228
1877,10823,12195
1947,8420,18271
2111,11313,20383
927,3904,12017
1749,9773,15569
1146,5746,10288
1449,8738,10273
1484,8043,14860
698,4418,5453
809,4047,12579
1479,7880,15360
1540,7662,19306
1671,6460,22591
2233,16791,13418
1404,7858,13800
1285,6533,12970
1775,7489,19849
1415,8300,10924
1950,10777,17832
1236,7630,11374
2065,10294,21883
1359,6715,12036
746,4506,6686
1817,8778,21081
1257,6705,13310
1575,8814,22285
824,4154,8813
978,4761,11043
2021,12321,15695
1501,7193,16484
749,4048,8646
1498,8584,9948
1077,5867,12949
1031,7886,8413
2108,12635,15939
1008,5539,12153
856,4042,11118
1880,9025,20671
1307,5868,16246
1271,8276,9902
643,3156,7246
849,5065,9530
1244,7257,12382
361,2463,3354
2063,8730,26708
1009,4832,10887
1602,6538,17788
1218,6935,15650
585,3427,5891
2739,15447,23599
1404,9186,10372
740,5091,6089
1202,5413,16629
1882,9821,16238
1037,4222,12874
1783,9729,17451
600,2656,7642
1510,7201,17752
1084,5728,10903
601,3713,6871
1454,7617,13515
1067,7668,12829
1343,8213,17363
