Initialize SIGNATURE TABLE
ST_SET: 1
ST_WAY: 256
ST_TAG_BIT: 16
ST_TAG_MASK: ffff

Initialize PATTERN TABLE
PT_SET: 512
PT_WAY: 4
SIG_DELTA_BIT: 7
C_SIG_BIT: 4
C_DELTA_BIT: 4

Initialize PREFETCH FILTER
FILTER_SET: 1024

*** ChampSim Multicore Out-of-Order Simulator ***

Warmup Instructions: 50000000
Simulation Instructions: 50000000
Number of CPUs: 1
LLC sets: 2048
LLC ways: 16
Off-chip DRAM Size: 4096 MB Channels: 1 Width: 64-bit Data Rate: 3200 MT/s

CPU 0 runs /ChampSim-master-BTBX/dpc3_traces/server_002.champsimtrace.xz
Basic BTB sets: 4096 ways: 4 indirect buffer size: 4096 RAS size: 64
CPU 0 L1D next line prefetcher
Heartbeat CPU 0 instructions: 10000000 cycles: 3581201 heartbeat IPC: 2.79236 cumulative IPC: 2.79236 (Simulation time: 0 hr 0 min 18 sec) 
Heartbeat CPU 0 instructions: 20000002 cycles: 7169952 heartbeat IPC: 2.78649 cumulative IPC: 2.78942 (Simulation time: 0 hr 0 min 37 sec) 
Heartbeat CPU 0 instructions: 30000000 cycles: 10710681 heartbeat IPC: 2.82428 cumulative IPC: 2.80094 (Simulation time: 0 hr 0 min 56 sec) 
Heartbeat CPU 0 instructions: 40000000 cycles: 14260926 heartbeat IPC: 2.81671 cumulative IPC: 2.80487 (Simulation time: 0 hr 1 min 16 sec) 
Heartbeat CPU 0 instructions: 50000001 cycles: 17808697 heartbeat IPC: 2.81867 cumulative IPC: 2.80762 (Simulation time: 0 hr 1 min 35 sec) 

Warmup complete CPU 0 instructions: 50000001 cycles: 17808697 (Simulation time: 0 hr 1 min 35 sec) 

Heartbeat CPU 0 instructions: 60000000 cycles: 28971966 heartbeat IPC: 0.895795 cumulative IPC: 0.895795 (Simulation time: 0 hr 1 min 53 sec) 
Heartbeat CPU 0 instructions: 70000001 cycles: 40136742 heartbeat IPC: 0.895674 cumulative IPC: 0.895734 (Simulation time: 0 hr 2 min 12 sec) 
Heartbeat CPU 0 instructions: 80000003 cycles: 51300410 heartbeat IPC: 0.895763 cumulative IPC: 0.895744 (Simulation time: 0 hr 2 min 30 sec) 
Heartbeat CPU 0 instructions: 90000002 cycles: 62462390 heartbeat IPC: 0.895898 cumulative IPC: 0.895783 (Simulation time: 0 hr 2 min 48 sec) 
Heartbeat CPU 0 instructions: 100000003 cycles: 73621667 heartbeat IPC: 0.896115 cumulative IPC: 0.895849 (Simulation time: 0 hr 3 min 6 sec) 
Finished CPU 0 instructions: 50000002 cycles: 55812970 cumulative IPC: 0.895849 (Simulation time: 0 hr 3 min 6 sec) 

ChampSim completed all CPUs

Region of Interest Statistics

CPU 0
XXX cumulative-IPC 0.895849
XXX instructions 50000002
XXX cycles 55812970
L1D TOTAL     ACCESS:   22563873  HIT:   22563063  MISS:        810
L1D LOAD      ACCESS:    7097289  HIT:    7096913  MISS:        376
L1D RFO       ACCESS:    8505644  HIT:    8505530  MISS:        114
L1D PREFETCH  ACCESS:    6960940  HIT:    6960620  MISS:        320
L1D WRITEBACK ACCESS:          0  HIT:          0  MISS:          0
L1D PREFETCH  REQUESTED:    7097356  ISSUED:    6998854
XXX L1D-USEFUL 91
XXX L1D-USELESS 230
L1D AVERAGE MISS LATENCY: 31.1494 cycles
L1I TOTAL     ACCESS:   15284000  HIT:   13946649  MISS:    1337351
L1I LOAD      ACCESS:    9753308  HIT:    8930650  MISS:     822658
L1I RFO       ACCESS:          0  HIT:          0  MISS:          0
L1I PREFETCH  ACCESS:    5530692  HIT:    5015999  MISS:     514693
L1I WRITEBACK ACCESS:          0  HIT:          0  MISS:          0
L1I PREFETCH  REQUESTED:    6758269  ISSUED:    6758269
XXX L1I-USEFUL 284153
XXX L1I-USELESS 230542
L1I AVERAGE MISS LATENCY: 13.6567 cycles
L2C TOTAL     ACCESS:    1853528  HIT:    1853250  MISS:        278
L2C LOAD      ACCESS:     785867  HIT:     785809  MISS:         58
L2C RFO       ACCESS:        113  HIT:        108  MISS:          5
L2C PREFETCH  ACCESS:    1067212  HIT:    1066998  MISS:        214
L2C WRITEBACK ACCESS:        336  HIT:        335  MISS:          1
L2C PREFETCH  REQUESTED:     930802  ISSUED:     930802
XXX L2C-USEFUL 86
XXX L2C-USELESS 114
L2C AVERAGE MISS LATENCY: 132.615 cycles
LLC TOTAL     ACCESS:      97109  HIT:      96440  MISS:        669
LLC LOAD      ACCESS:         56  HIT:         49  MISS:          7
LLC RFO       ACCESS:          5  HIT:          3  MISS:          2
LLC PREFETCH  ACCESS:      96970  HIT:      96312  MISS:        658
LLC WRITEBACK ACCESS:         78  HIT:         76  MISS:          2
LLC PREFETCH  REQUESTED:          0  ISSUED:          0
XXX LLC-USEFUL 8
XXX LLC-USELESS 147
LLC AVERAGE MISS LATENCY: 263.103 cycles
Major fault: 0 Minor fault: 1870
XXX disp-0 2564865
XXX disp-1 0
XXX disp-2 11
XXX disp-3 220491
XXX disp-4 767554
XXX disp-5 946897
XXX disp-6 1559954
XXX disp-7 717877
XXX disp-8 576974
XXX disp-9 462727
XXX disp-10 388131
XXX disp-11 467668
XXX disp-12 123025
XXX disp-13 37419
XXX disp-14 275231
XXX disp-15 279873
XXX disp-16 183356
XXX disp-17 2236
XXX disp-18 107170
XXX disp-19 2218
XXX disp-20 266237
XXX disp-21 179955
XXX disp-22 43
XXX disp-23 434457
XXX disp-24 0
XXX disp-25 0
XXX disp-26 0
XXX disp-27 0
XXX disp-28 0
XXX disp-29 0
XXX disp-30 0
XXX disp-31 0
XXX disp-32 0
XXX disp-33 0
XXX disp-34 0
XXX disp-35 0
XXX disp-36 0
XXX disp-37 0
XXX disp-38 0
XXX disp-39 0
XXX disp-40 0
XXX disp-41 0
XXX disp-42 0
XXX disp-43 0
XXX disp-44 0
XXX disp-45 0
XXX disp-46 0
XXX disp-47 2149
XXX disp-48 0
XXX disp-49 0
XXX disp-50 0
XXX disp-51 0
XXX disp-52 0
XXX disp-53 0
XXX disp-54 0
XXX disp-55 0
XXX disp-56 0
XXX disp-57 0
XXX disp-58 0
XXX disp-59 0
XXX disp-60 0
XXX disp-61 0
XXX disp-62 0
XXX disp-63 0
XXX disp-64 0
XXX disp-65 0
XXX diffBits-0 2564865
XXX diffBits-1 0
XXX diffBits-2 107326
XXX diffBits-3 280611
XXX diffBits-4 532878
XXX diffBits-5 1422747
XXX diffBits-6 940143
XXX diffBits-7 623434
XXX diffBits-8 584070
XXX diffBits-9 463195
XXX diffBits-10 581815
XXX diffBits-11 449206
XXX diffBits-12 175821
XXX diffBits-13 73117
XXX diffBits-14 175071
XXX diffBits-15 89574
XXX diffBits-16 161391
XXX diffBits-17 2294
XXX diffBits-18 72061
XXX diffBits-19 471040
XXX diffBits-20 180917
XXX diffBits-21 178318
XXX diffBits-22 434475
XXX diffBits-23 0
XXX diffBits-24 0
XXX diffBits-25 0
XXX diffBits-26 0
XXX diffBits-27 0
XXX diffBits-28 0
XXX diffBits-29 0
XXX diffBits-30 0
XXX diffBits-31 0
XXX diffBits-32 0
XXX diffBits-33 0
XXX diffBits-34 0
XXX diffBits-35 0
XXX diffBits-36 0
XXX diffBits-37 0
XXX diffBits-38 0
XXX diffBits-39 0
XXX diffBits-40 0
XXX diffBits-41 0
XXX diffBits-42 0
XXX diffBits-43 0
XXX diffBits-44 0
XXX diffBits-45 0
XXX diffBits-46 2149
XXX diffBits-47 0
XXX diffBits-48 0
XXX diffBits-49 0
XXX diffBits-50 0
XXX diffBits-51 0
XXX diffBits-52 0
XXX diffBits-53 0
XXX diffBits-54 0
XXX diffBits-55 0
XXX diffBits-56 0
XXX diffBits-57 0
XXX diffBits-58 0
XXX diffBits-59 0
XXX diffBits-60 0
XXX diffBits-61 0
XXX diffBits-62 0
XXX diffBits-63 0
XXX diffBits-64 0
XXX diffBits-65 0
CPU 0 L1D next line prefetcher final stats

DRAM Statistics
 CHANNEL 0
 RQ ROW_BUFFER_HIT:        117  ROW_BUFFER_MISS:        550
 DBUS_CONGESTED:        449
 WQ ROW_BUFFER_HIT:         71  ROW_BUFFER_MISS:        414  FULL:          0

 AVG_CONGESTED_CYCLE: 6

CPU 0 Branch Prediction Accuracy: 94.4166% MPKI: 9.40172 Average ROB Occupancy at Mispredict: 83.1233

XXX total_mispredicts 470086
XXX total_target_mispredicts1 336356
XXX total_target_mispredicts2 33
XXX total_direction_mispredicts 133697
XXX mispredict_on_btb_hit 336323
XXX NOT_BRANCH: 0
XXX BRANCH_DIRECT_JUMP: 2
XXX BRANCH_INDIRECT: 0
XXX BRANCH_CONDITIONAL: 0
XXX BRANCH_DIRECT_CALL: 6
XXX BRANCH_INDIRECT_CALL: 17656
XXX BRANCH_RETURN: 318659
XXX BRANCH_OTHER: 0
Branch types
NOT_BRANCH: 41580586 83.1612%
BRANCH_DIRECT_JUMP: 461627 0.923254%
BRANCH_INDIRECT: 0 0%
BRANCH_CONDITIONAL: 5376423 10.7528%
BRANCH_DIRECT_CALL: 1175772 2.35154%
BRANCH_INDIRECT_CALL: 114840 0.22968%
BRANCH_RETURN: 1290619 2.58124%
BRANCH_OTHER: 0 0%

XXX BTB_reads: 5642235
XXX BTB_writes: 63
XXX PageBTB_reads: 0
XXX PageBTB_writes: 0
XXX PageBTB_readsBeforeWrite: 0
XXX RegionBTB_reads: 0
XXX RegionBTB_writes: 0
XXX RegionBTB_readsBeforeWrite: 0
XXX BTB_4D_Hits 446334
XXX BTB_6D_Hits 1182561
XXX BTB_8D_Hits 838032
XXX BTB_12D_Hits 645703
XXX BTB_18D_Hits 577552
XXX BTB_25D_Hits 308980
XXX BTB_46D_Hits 0
XXX BTB_Ret_Hits 1290616
XXX BTB_4D_Misses 7
XXX BTB_6D_Misses 3
XXX BTB_8D_Misses 9
XXX BTB_12D_Misses 9
XXX BTB_18D_Misses 7
XXX BTB_25D_Misses 16
XXX BTB_46D_Misses 9
XXX BTB_Ret_Misses 3
XXX Num_unique_branches 1761
total instructions: 0
wc,tif,trb
17,43,149
23,92,196
19,93,113
24,79,245
25,112,202
27,136,237
16,72,136
18,85,173
14,77,86
29,148,274
13,58,111
28,102,283
37,128,302
13,42,100
14,61,118
13,49,79
14,67,156
37,261,226
13,84,101
24,115,182
12,66,64
19,71,167
15,74,135
15,56,118
15,93,89
12,57,101
17,83,133
24,85,148
18,98,127
17,44,175
21,137,203
24,85,256
33,183,217
10,29,69
15,76,127
14,57,76
14,32,138
14,79,97
13,73,79
8,23,67
10,31,99
15,84,114
14,61,170
16,102,86
16,68,160
13,53,96
15,75,86
17,63,196
12,83,104
19,148,85
12,36,187
15,72,103
21,82,135
13,61,90
16,66,146
16,68,178
21,105,92
28,130,163
21,86,181
14,62,134
15,98,103
13,55,106
17,58,182
22,63,216
23,161,145
17,84,139
18,99,151
19,85,131
20,107,129
21,78,134
13,65,90
13,71,76
20,108,116
15,70,111
19,70,226
11,50,71
23,101,198
12,63,80
21,95,224
11,71,58
18,74,200
23,88,196
14,61,129
14,41,100
30,113,253
11,48,101
16,82,168
30,167,185
24,102,278
13,73,131
20,96,160
13,37,169
17,73,156
26,127,221
15,49,166
15,76,117
21,122,200
16,46,120
14,49,125
20,65,201
17,63,116
14,75,104
21,98,175
25,157,202
19,93,170
21,102,215
12,31,122
26,87,246
16,84,130
29,119,306
13,81,80
28,166,241
24,107,184
19,94,137
36,177,305
12,75,79
11,48,139
17,53,127
20,97,142
15,49,160
20,62,214
20,76,197
14,58,146
16,59,189
24,96,253
14,56,183
14,52,113
23,91,262
18,63,155
11,59,95
20,81,170
13,53,66
20,103,145
17,76,148
16,59,162
21,92,174
27,81,260
11,34,115
18,86,105
18,82,118
30,156,208
21,111,126
19,65,230
19,84,149
27,138,267
16,82,97
17,91,146
18,58,185
19,102,76
21,82,164
19,61,179
17,76,114
17,87,160
18,80,162
24,112,230
17,82,132
20,96,138
15,53,150
18,83,181
20,73,160
10,41,63
17,55,182
23,106,141
21,97,197
14,98,96
15,66,145
21,60,218
18,108,99
14,58,172
23,125,204
23,106,184
28,142,190
12,53,133
21,99,171
19,86,141
15,51,141
14,60,103
15,77,80
15,55,182
16,53,161
20,71,186
14,69,115
20,82,211
27,57,309
20,69,205
26,127,210
23,102,225
19,83,143
19,61,229
24,131,225
21,95,115
20,65,247
9,37,93
21,142,131
18,95,169
15,63,168
25,117,227
13,59,100
33,170,343
7,28,27
23,90,248
20,73,171
21,120,172
15,50,129
17,73,166
22,99,135
29,104,233
22,93,265
24,142,127
39,186,360
18,96,162
21,105,191
11,41,113
25,131,165
27,146,272
21,102,137
17,68,185
18,37,184
17,61,95
30,101,359
15,70,111
21,78,237
13,51,108
24,157,204
14,51,154
18,68,146
14,65,112
11,41,90
17,111,118
16,65,153
12,40,77
13,54,145
17,70,129
25,105,216
25,114,157
17,87,128
14,39,171
23,120,174
14,61,117
13,56,97
14,51,137
15,50,147
5,16,46
25,101,221
13,62,92
11,49,82
27,122,223
19,70,159
17,76,143
23,100,218
21,105,155
20,65,173
12,51,125
22,97,187
10,45,97
10,52,90
30,168,190
21,79,180
15,49,179
21,85,178
18,88,141
19,121,108
15,64,103
25,116,182
15,49,138
22,101,168
13,65,136
21,132,140
26,131,265
24,89,284
15,54,145
21,89,188
10,39,73
21,103,149
16,83,95
28,160,222
16,67,201
22,134,161
19,74,188
10,34,97
18,92,180
18,124,142
22,109,235
28,112,259
21,72,137
21,98,255
18,76,204
20,90,198
23,97,214
22,93,176
20,96,156
23,138,185
24,87,274
22,102,138
11,38,130
26,114,219
14,45,104
31,169,207
15,71,148
16,41,175
18,84,136
14,60,136
17,77,150
26,66,232
13,56,116
23,117,166
19,88,137
19,76,166
15,89,94
21,63,198
24,98,202
20,92,175
17,52,165
16,73,108
6,8,48
15,70,137
25,105,223
18,69,207
18,84,174
19,74,176
19,109,148
18,83,166
15,74,121
23,79,250
15,78,113
22,85,207
16,74,129
18,76,154
12,39,82
17,55,200
12,46,80
34,124,301
15,34,161
24,144,171
26,128,209
19,58,193
21,87,186
21,108,143
20,109,124
29,161,250
32,139,269
19,92,212
29,112,300
21,57,251
13,56,111
8,25,55
23,116,197
25,126,267
14,64,148
26,89,295
18,78,139
36,189,239
24,54,235
23,109,190
28,147,212
16,62,157
15,58,103
27,108,247
20,104,202
13,57,89
29,146,149
31,193,251
20,119,126
22,79,238
23,136,111
31,148,248
15,105,62
11,50,83
21,116,186
11,69,84
19,113,106
29,131,329
21,92,147
19,64,202
11,25,124
30,195,222
23,81,233
18,77,148
15,71,101
22,94,201
15,62,120
17,60,149
15,48,175
22,81,198
14,77,76
13,84,65
10,14,110
22,100,168
15,52,126
27,146,203
21,87,233
21,151,125
18,70,157
25,106,217
32,168,212
20,74,160
20,68,228
20,100,160
27,137,216
16,58,172
22,125,170
18,70,161
19,69,158
14,54,95
19,71,167
15,68,161
14,49,135
11,54,81
23,135,148
8,23,81
20,74,200
22,77,186
21,88,170
11,68,61
37,179,424
26,133,197
19,100,140
15,81,86
13,47,110
27,136,236
10,54,62
17,114,120
30,113,299
16,62,111
17,61,143
26,94,268
15,46,142
18,99,165
30,106,227
21,83,174
14,81,91
14,69,93
25,155,141
15,60,156
13,51,98
16,91,115
21,98,134
23,128,198
22,96,182
18,67,143
22,123,154
20,133,103
22,111,163
16,84,120
12,70,68
13,95,119
18,93,100
27,94,250
18,87,128
21,94,137
26,164,245
20,94,119
17,71,97
13,48,123
28,113,391
21,72,270
27,112,151
16,61,147
25,93,238
20,96,141
20,94,263
20,104,190
20,91,193
23,81,198
21,72,137
23,80,230
25,129,152
22,107,233
27,140,220
14,84,99
20,77,192
25,129,198
14,68,118
13,62,82
22,88,230
12,48,147
13,55,166
26,112,255
27,96,333
24,65,250
12,55,87
29,153,283
18,71,148
23,92,144
14,57,147
31,168,185
8,31,78
26,94,249
19,76,147
31,124,238
20,99,159
22,154,145
23,111,224
28,125,228
25,107,185
20,74,210
16,89,202
19,99,173
24,137,164
16,80,80
14,56,148
24,81,177
16,94,140
16,46,200
26,130,312
26,93,315
24,111,236
19,90,174
35,164,317
19,85,204
21,140,207
33,173,359
