Initialize SIGNATURE TABLE
ST_SET: 1
ST_WAY: 256
ST_TAG_BIT: 16
ST_TAG_MASK: ffff

Initialize PATTERN TABLE
PT_SET: 512
PT_WAY: 4
SIG_DELTA_BIT: 7
C_SIG_BIT: 4
C_DELTA_BIT: 4

Initialize PREFETCH FILTER
FILTER_SET: 1024

*** ChampSim Multicore Out-of-Order Simulator ***

Warmup Instructions: 50000000
Simulation Instructions: 50000000
Number of CPUs: 1
LLC sets: 2048
LLC ways: 16
Off-chip DRAM Size: 4096 MB Channels: 1 Width: 64-bit Data Rate: 3200 MT/s

CPU 0 runs /ChampSim-master-BTBX/dpc3_traces/server_031.champsimtrace.xz
Basic BTB sets: 4096 ways: 4 indirect buffer size: 4096 RAS size: 64
CPU 0 L1D next line prefetcher
Heartbeat CPU 0 instructions: 10000003 cycles: 3523845 heartbeat IPC: 2.83781 cumulative IPC: 2.83781 (Simulation time: 0 hr 0 min 19 sec) 
Heartbeat CPU 0 instructions: 20000002 cycles: 7046092 heartbeat IPC: 2.8391 cumulative IPC: 2.83845 (Simulation time: 0 hr 0 min 38 sec) 
Heartbeat CPU 0 instructions: 30000002 cycles: 10568214 heartbeat IPC: 2.8392 cumulative IPC: 2.8387 (Simulation time: 0 hr 0 min 59 sec) 
Heartbeat CPU 0 instructions: 40000003 cycles: 14086121 heartbeat IPC: 2.8426 cumulative IPC: 2.83967 (Simulation time: 0 hr 1 min 18 sec) 
Heartbeat CPU 0 instructions: 50000001 cycles: 17607090 heartbeat IPC: 2.84013 cumulative IPC: 2.83977 (Simulation time: 0 hr 1 min 37 sec) 

Warmup complete CPU 0 instructions: 50000001 cycles: 17607090 (Simulation time: 0 hr 1 min 37 sec) 

Heartbeat CPU 0 instructions: 60000001 cycles: 32378665 heartbeat IPC: 0.676976 cumulative IPC: 0.676976 (Simulation time: 0 hr 1 min 56 sec) 
Heartbeat CPU 0 instructions: 70000002 cycles: 47172728 heartbeat IPC: 0.675947 cumulative IPC: 0.676461 (Simulation time: 0 hr 2 min 13 sec) 
*** Reached end of trace for Core: 0 Repeating trace: /ChampSim-master-BTBX/dpc3_traces/server_031.champsimtrace.xz
Heartbeat CPU 0 instructions: 80000000 cycles: 61786663 heartbeat IPC: 0.684278 cumulative IPC: 0.679047 (Simulation time: 0 hr 2 min 31 sec) 
Heartbeat CPU 0 instructions: 90000000 cycles: 76509904 heartbeat IPC: 0.679198 cumulative IPC: 0.679085 (Simulation time: 0 hr 2 min 50 sec) 
Heartbeat CPU 0 instructions: 100000000 cycles: 91190272 heartbeat IPC: 0.681182 cumulative IPC: 0.679503 (Simulation time: 0 hr 3 min 9 sec) 
Finished CPU 0 instructions: 50000000 cycles: 73583188 cumulative IPC: 0.679503 (Simulation time: 0 hr 3 min 9 sec) 

ChampSim completed all CPUs

Region of Interest Statistics

CPU 0
XXX cumulative-IPC 0.679503
XXX instructions 50000000
XXX cycles 73583188
L1D TOTAL     ACCESS:   22347821  HIT:   20438995  MISS:    1908826
L1D LOAD      ACCESS:    8105321  HIT:    7248260  MISS:     857061
L1D RFO       ACCESS:    6448719  HIT:    6157105  MISS:     291614
L1D PREFETCH  ACCESS:    7793781  HIT:    7033630  MISS:     760151
L1D WRITEBACK ACCESS:          0  HIT:          0  MISS:          0
L1D PREFETCH  REQUESTED:    8180825  ISSUED:    8099584
XXX L1D-USEFUL 191014
XXX L1D-USELESS 569140
L1D AVERAGE MISS LATENCY: 23.962 cycles
L1I TOTAL     ACCESS:   14250843  HIT:   10562847  MISS:    3687996
L1I LOAD      ACCESS:    9292422  HIT:    7317611  MISS:    1974811
L1I RFO       ACCESS:          0  HIT:          0  MISS:          0
L1I PREFETCH  ACCESS:    4958421  HIT:    3245236  MISS:    1713185
L1I WRITEBACK ACCESS:          0  HIT:          0  MISS:          0
L1I PREFETCH  REQUESTED:    7979073  ISSUED:    7979073
XXX L1I-USEFUL 1084646
XXX L1I-USELESS 628551
L1I AVERAGE MISS LATENCY: 13.3723 cycles
L2C TOTAL     ACCESS:    7905658  HIT:    6854733  MISS:    1050925
L2C LOAD      ACCESS:    1788810  HIT:    1491677  MISS:     297133
L2C RFO       ACCESS:     288893  HIT:     211347  MISS:      77546
L2C PREFETCH  ACCESS:    5211119  HIT:    4539349  MISS:     671770
L2C WRITEBACK ACCESS:     616836  HIT:     612360  MISS:       4476
L2C PREFETCH  REQUESTED:    5035135  ISSUED:    5034671
XXX L2C-USEFUL 33794
XXX L2C-USELESS 636956
L2C AVERAGE MISS LATENCY: 39.0605 cycles
LLC TOTAL     ACCESS:    2320442  HIT:    2247613  MISS:      72829
LLC LOAD      ACCESS:     297010  HIT:     278840  MISS:      18170
LLC RFO       ACCESS:      77542  HIT:      73377  MISS:       4165
LLC PREFETCH  ACCESS:    1793690  HIT:    1743605  MISS:      50085
LLC WRITEBACK ACCESS:     152200  HIT:     151791  MISS:        409
LLC PREFETCH  REQUESTED:          0  ISSUED:          0
XXX LLC-USEFUL 2401
XXX LLC-USELESS 47444
LLC AVERAGE MISS LATENCY: 153.773 cycles
Major fault: 0 Minor fault: 6048
XXX disp-0 2417373
XXX disp-1 0
XXX disp-2 1740
XXX disp-3 388383
XXX disp-4 1315467
XXX disp-5 1129206
XXX disp-6 1115751
XXX disp-7 740658
XXX disp-8 668543
XXX disp-9 381657
XXX disp-10 271951
XXX disp-11 251759
XXX disp-12 120912
XXX disp-13 157566
XXX disp-14 132933
XXX disp-15 163905
XXX disp-16 87048
XXX disp-17 46155
XXX disp-18 163786
XXX disp-19 101246
XXX disp-20 127874
XXX disp-21 307581
XXX disp-22 174875
XXX disp-23 434849
XXX disp-24 84370
XXX disp-25 0
XXX disp-26 0
XXX disp-27 0
XXX disp-28 0
XXX disp-29 0
XXX disp-30 0
XXX disp-31 0
XXX disp-32 0
XXX disp-33 0
XXX disp-34 0
XXX disp-35 0
XXX disp-36 0
XXX disp-37 0
XXX disp-38 0
XXX disp-39 0
XXX disp-40 0
XXX disp-41 0
XXX disp-42 0
XXX disp-43 0
XXX disp-44 0
XXX disp-45 0
XXX disp-46 244815
XXX disp-47 0
XXX disp-48 0
XXX disp-49 0
XXX disp-50 0
XXX disp-51 0
XXX disp-52 0
XXX disp-53 0
XXX disp-54 0
XXX disp-55 0
XXX disp-56 0
XXX disp-57 0
XXX disp-58 0
XXX disp-59 0
XXX disp-60 0
XXX disp-61 0
XXX disp-62 0
XXX disp-63 0
XXX disp-64 0
XXX disp-65 0
XXX diffBits-0 2417373
XXX diffBits-1 1661
XXX diffBits-2 162408
XXX diffBits-3 635520
XXX diffBits-4 933064
XXX diffBits-5 949261
XXX diffBits-6 890635
XXX diffBits-7 684407
XXX diffBits-8 498810
XXX diffBits-9 584704
XXX diffBits-10 449317
XXX diffBits-11 275196
XXX diffBits-12 211983
XXX diffBits-13 173018
XXX diffBits-14 85612
XXX diffBits-15 125147
XXX diffBits-16 144076
XXX diffBits-17 112639
XXX diffBits-18 71702
XXX diffBits-19 160746
XXX diffBits-20 255604
XXX diffBits-21 274698
XXX diffBits-22 493061
XXX diffBits-23 0
XXX diffBits-24 0
XXX diffBits-25 194946
XXX diffBits-26 0
XXX diffBits-27 0
XXX diffBits-28 0
XXX diffBits-29 0
XXX diffBits-30 0
XXX diffBits-31 0
XXX diffBits-32 0
XXX diffBits-33 0
XXX diffBits-34 0
XXX diffBits-35 0
XXX diffBits-36 0
XXX diffBits-37 0
XXX diffBits-38 0
XXX diffBits-39 0
XXX diffBits-40 0
XXX diffBits-41 0
XXX diffBits-42 0
XXX diffBits-43 0
XXX diffBits-44 0
XXX diffBits-45 244815
XXX diffBits-46 0
XXX diffBits-47 0
XXX diffBits-48 0
XXX diffBits-49 0
XXX diffBits-50 0
XXX diffBits-51 0
XXX diffBits-52 0
XXX diffBits-53 0
XXX diffBits-54 0
XXX diffBits-55 0
XXX diffBits-56 0
XXX diffBits-57 0
XXX diffBits-58 0
XXX diffBits-59 0
XXX diffBits-60 0
XXX diffBits-61 0
XXX diffBits-62 0
XXX diffBits-63 0
XXX diffBits-64 0
XXX diffBits-65 0
CPU 0 L1D next line prefetcher final stats

DRAM Statistics
 CHANNEL 0
 RQ ROW_BUFFER_HIT:      20803  ROW_BUFFER_MISS:      51613
 DBUS_CONGESTED:      29173
 WQ ROW_BUFFER_HIT:        629  ROW_BUFFER_MISS:       5018  FULL:          0

 AVG_CONGESTED_CYCLE: 4

CPU 0 Branch Prediction Accuracy: 80.7751% MPKI: 35.9283 Average ROB Occupancy at Mispredict: 39.3806

XXX total_mispredicts 1796416
XXX total_target_mispredicts1 1354821
XXX total_target_mispredicts2 267825
XXX total_direction_mispredicts 173770
XXX mispredict_on_btb_hit 617897
XXX NOT_BRANCH: 0
XXX BRANCH_DIRECT_JUMP: 15924
XXX BRANCH_INDIRECT: 18068
XXX BRANCH_CONDITIONAL: 0
XXX BRANCH_DIRECT_CALL: 18870
XXX BRANCH_INDIRECT_CALL: 12804
XXX BRANCH_RETURN: 552231
XXX BRANCH_OTHER: 0
Branch types
NOT_BRANCH: 40655514 81.311%
BRANCH_DIRECT_JUMP: 546483 1.09297%
BRANCH_INDIRECT: 172433 0.344866%
BRANCH_CONDITIONAL: 6207553 12.4151%
BRANCH_DIRECT_CALL: 1018497 2.03699%
BRANCH_INDIRECT_CALL: 190373 0.380746%
BRANCH_RETURN: 1208856 2.41771%
BRANCH_OTHER: 0 0%

XXX BTB_reads: 21540756
XXX BTB_writes: 991275
XXX PageBTB_reads: 0
XXX PageBTB_writes: 0
XXX PageBTB_readsBeforeWrite: 0
XXX RegionBTB_reads: 0
XXX RegionBTB_writes: 0
XXX RegionBTB_readsBeforeWrite: 0
XXX BTB_4D_Hits 832593
XXX BTB_6D_Hits 841465
XXX BTB_8D_Hits 739703
XXX BTB_12D_Hits 397262
XXX BTB_18D_Hits 264419
XXX BTB_25D_Hits 210241
XXX BTB_46D_Hits 72408
XXX BTB_Ret_Hits 1162463
XXX BTB_4D_Misses 29980
XXX BTB_6D_Misses 23736
XXX BTB_8D_Misses 91884
XXX BTB_12D_Misses 107244
XXX BTB_18D_Misses 81540
XXX BTB_25D_Misses 219087
XXX BTB_46D_Misses 391411
XXX BTB_Ret_Misses 46393
XXX Num_unique_branches 9745
total instructions: 0
wc,tif,trb
6637,31218,131175
174,937,1839
190,1454,3072
324,2975,3755
15,41,178
26,217,133
3515,21684,44589
6566,23608,119428
4933,54298,58561
1993,25938,21289
2870,28116,29426
7206,32623,116773
28,174,356
1394,7069,25424
167,648,3400
19,38,205
4889,45025,60560
241,2019,3024
3562,12671,75322
12,77,67
3494,23812,58696
12,51,117
3173,20580,58607
3330,11672,71438
4939,19777,100005
2486,35178,15132
1807,13317,16969
3240,13071,67755
1596,6343,33334
6,17,74
8436,31378,153482
258,2563,2880
5982,60285,53523
182,180,4198
3440,16313,68868
387,3252,5149
3327,10042,72959
3107,10624,66919
3245,13235,67135
905,2196,20363
203,1434,3521
10,50,80
1270,12240,19284
244,1198,4782
339,1083,4932
712,5076,5131
539,2896,5443
4836,14771,106003
3173,4782,74402
221,684,1580
13,69,174
9172,50786,117594
8814,49092,109252
7,26,43
54,385,650
5348,28916,98282
3220,20394,59750
10,21,81
2050,8717,29526
174,412,3772
6,10,42
8613,36134,126694
6560,54589,84427
193,431,4135
89,442,1615
10364,54417,92947
1702,6595,35839
183,1044,3438
4849,31026,55121
382,2080,4558
244,1369,3897
4753,42724,61703
1946,8687,38912
1307,5325,22952
1016,3550,21670
485,4895,3869
4106,16710,78288
907,6154,15324
3479,24820,59223
3959,24181,50652
3226,33028,45357
309,2195,3915
4883,18493,101719
15,132,67
7749,48407,122028
245,2078,2259
6,3,68
13239,53265,168028
12792,80999,104568
20,173,159
8260,67579,66546
15,26,202
3235,13768,66897
9,22,103
3769,18973,71283
5902,46348,79609
4126,15618,81664
721,4663,3805
7407,52111,108101
1054,2601,15807
6,3,61
5284,36323,79489
3166,4748,74288
12369,99723,66706
6,15,56
9,47,44
11241,82253,106814
1783,1403,10788
448,3103,7996
2640,24052,38440
4738,26263,92108
8219,62700,118040
1665,8234,33291
1280,8026,18974
20,188,98
25,88,153
172,909,2400
9557,79539,82677
164,1183,2803
13198,80328,89155
608,4600,6717
2901,30519,38877
3146,14131,64301
337,3050,4269
10,34,90
252,2560,2808
1720,12108,25649
403,2402,6638
6232,32462,123191
36,165,297
561,5314,3835
9425,92287,47028
6459,87911,51220
3099,9053,68302
5,3,22
360,1329,7551
90,591,1535
252,1222,2618
1543,14423,21046
115,311,2251
824,3616,12362
159,1475,2291
30,125,443
3332,6702,76454
75,758,426
5057,41830,66425
8,48,32
190,943,3473
784,5805,6506
3247,18269,62786
9603,56717,131274
12278,82166,127966
4,12,27
439,3821,4204
164,639,3341
3,5,27
3469,20479,61080
24,198,246
2893,14998,56067
205,2111,2538
2052,20371,23800
8,14,66
388,2286,4121
4106,22369,68240
341,1676,5713
201,1167,3518
1832,13552,31148
9,20,65
250,3079,2303
267,1322,4981
323,3028,2789
3445,27740,55294
3954,30718,51873
7,48,69
163,640,3362
710,6134,4352
3169,7927,71178
165,1171,2770
4,6,28
6596,41270,99678
110,1229,865
249,2357,3771
2,1,6
14,58,148
1345,6212,12246
269,2882,2722
1165,7835,10146
507,3248,6072
6328,26908,112242
7954,45893,133656
16,36,317
14443,79447,137448
4998,39723,57368
88,33,1589
8,28,66
6,6,30
515,4639,3226
10,42,101
7802,81496,43045
104,771,1595
11,50,99
3189,24997,47598
14,77,95
17,214,91
163,943,3033
272,2785,2948
13,28,121
13,69,110
119,1651,868
12928,105783,78316
7,15,46
18,83,231
338,1005,6466
565,4561,3831
1759,5282,38579
2283,17134,24205
8007,70007,49894
14,35,207
7,9,62
163,485,3524
246,1993,2919
5,11,18
8,17,63
4194,16684,79233
9,27,96
397,1910,5321
47,196,609
6335,26912,112331
2331,5838,52300
1210,9768,19349
164,959,3053
6,20,24
7217,58922,68359
3509,9996,75683
1023,5085,18650
3289,11832,68941
2043,675,47634
5306,43591,66582
13,114,91
4987,10204,114371
12,60,126
6,7,66
179,747,3506
247,2827,2522
6221,46137,63746
6453,45800,72047
8662,48111,105639
18,87,249
4946,53060,52060
2905,22153,50336
177,521,2660
168,1434,1686
44,343,519
11115,52685,130636
12,36,154
3171,12524,66631
9640,52872,115948
5193,53154,57763
6,12,57
3169,4750,74361
3180,12722,66616
173,616,3583
93,430,1701
311,2437,3870
3923,28208,32161
3249,14252,66853
5,14,37
5743,16536,113711
3650,39295,42497
210,2060,1425
6,20,31
3109,11684,65789
1580,18745,20579
11,42,111
3531,17971,65892
47,377,578
3185,11135,68344
763,4203,6426
325,2223,3244
4377,21326,86376
4054,10198,72444
13,92,69
61,611,500
3169,6344,72802
11,42,167
18,190,102
12492,55217,144531
3407,23356,58149
14062,46241,162305
873,5922,4419
3561,23949,60510
30,249,126
13,58,81
4853,26115,58888
879,4051,16672
8,38,42
3021,20633,36106
25,146,273
23,74,329
100,664,1024
11,58,51
3174,17402,61754
35,390,301
583,3688,6367
2632,7940,55701
6559,55055,58487
12,126,54
762,2660,12941
9,53,46
30,178,286
400,2819,3977
82,647,701
1680,8306,33621
540,2874,7236
533,5696,6888
22,119,283
4928,31424,90390
4998,45240,50552
6484,31176,119962
3114,15409,61519
8385,79675,76746
212,967,3985
15709,112029,85395
14979,83790,118853
3480,7272,78722
4,13,38
873,8748,4488
323,1292,6467
3063,12235,64242
21,142,195
16684,103292,164656
5926,45037,83997
5885,35316,95239
2604,22495,41105
3986,19477,69076
3797,11468,78211
5844,44973,85363
326,1313,5807
321,3422,2385
4351,40898,56835
423,1001,8292
8389,55895,128896
11879,79777,86568
541,2362,6851
3376,13801,70145
3553,12458,72909
4683,27019,67653
4843,20851,100044
3711,25998,63465
4133,21189,81966
3308,38206,39468
6482,37887,102989
7,18,53
415,3309,4945
15724,73784,126544
9194,31004,133779
7493,68019,67312
3401,37854,32740
2608,9709,54301
160,1088,1179
3398,27316,53631
320,1433,5511
25,190,269
541,2459,6528
8078,44752,134698
10133,82140,72451
737,2058,15336
54,332,944
3735,7800,79055
2553,14800,33185
3886,18427,77627
343,2934,4519
1918,20249,23484
7,37,56
804,6652,6414
29,268,187
2229,11736,42313
1139,5670,20725
6721,43005,83048
3289,19220,61099
10920,68586,108864
366,2951,3997
7237,34859,119116
7,15,60
878,5257,8260
10,43,53
13,37,182
5436,31204,84374
3362,17899,65801
3315,12467,69604
5167,13675,103762
10488,56375,150868
363,2313,3887
17743,102234,136383
3617,13675,71048
6684,19757,123273
1977,26193,9488
15445,98537,76001
3173,17424,61769
3264,30297,49043
9443,62555,101602
14378,53650,205836
8733,63833,91684
24,157,291
3183,15078,63393
5007,18665,104064
173,1391,2732
2202,9536,43584
16057,88408,143917
153,1322,1934
413,3622,4082
3183,29834,48691
8560,63079,121855
12478,59731,125993
13813,64284,139537
1044,4790,18906
477,4156,2749
246,1834,3472
26,181,224
3706,12752,75831
6,11,33
676,5453,3585
635,5980,5336
10036,69792,88477
3163,22475,55774
15,143,128
2618,23155,41301
16,47,187
5395,49819,62515
6,5,55
8,17,63
4656,54600,46076
251,1858,2977
168,1245,1745
3596,33704,50478
6,17,52
214,1297,3501
3407,10930,73116
3943,28752,60955
6495,54530,87421
8044,56891,90905
10006,70752,83909
4750,46608,56582
777,2813,9101
12583,69292,155418
6808,30367,137849
2871,16400,54219
5738,28063,102554
22,105,211
10532,63824,108001
9615,61672,121549
3704,27220,61386
4875,13722,108021
2350,18318,39700
171,282,3827
4570,47102,49020
379,1848,7307
5035,53149,52881
7665,55717,84918
18815,95214,204513
6587,35786,75779
10,33,79
4735,31500,72437
5982,13503,122731
23444,130100,182919
6,20,16
3337,6854,76481
2296,3769,48305
9,19,68
414,1842,3497
414,2788,1654
3168,12665,66415
8356,39441,109777
1815,7341,37465
247,2078,2309
4938,32040,73630
3193,9686,69903
17143,106817,164148
11492,89484,76533
360,1524,7322
8034,41569,139917
14,68,116
3474,31285,52288
19424,119639,105580
5549,30952,83492
305,1200,4828
500,5539,2397
4369,15516,93614
7,15,95
5300,62609,47637
9491,47530,126363
14,114,88
4666,29262,73364
9871,52727,128246
3331,16014,67182
343,3280,4180
3538,21048,55273
171,585,3610
3262,5254,76150
1692,16208,24852
172,443,3640
264,1470,2198
4254,33166,65791
264,2607,3789
14,87,111
55,207,1030
3333,21441,60750
255,1785,4390
6772,49479,93736
3983,31083,63466
13740,51296,155424
3414,30049,54027
