Initialize SIGNATURE TABLE
ST_SET: 1
ST_WAY: 256
ST_TAG_BIT: 16
ST_TAG_MASK: ffff

Initialize PATTERN TABLE
PT_SET: 512
PT_WAY: 4
SIG_DELTA_BIT: 7
C_SIG_BIT: 4
C_DELTA_BIT: 4

Initialize PREFETCH FILTER
FILTER_SET: 1024

*** ChampSim Multicore Out-of-Order Simulator ***

Warmup Instructions: 50000000
Simulation Instructions: 50000000
Number of CPUs: 1
LLC sets: 2048
LLC ways: 16
Off-chip DRAM Size: 4096 MB Channels: 1 Width: 64-bit Data Rate: 3200 MT/s

CPU 0 runs /ChampSim-master-BTBX/dpc3_traces/server_036.champsimtrace.xz
Basic BTB sets: 4096 ways: 4 indirect buffer size: 4096 RAS size: 64
CPU 0 L1D next line prefetcher
Heartbeat CPU 0 instructions: 10000000 cycles: 3459049 heartbeat IPC: 2.89097 cumulative IPC: 2.89097 (Simulation time: 0 hr 0 min 19 sec) 
Heartbeat CPU 0 instructions: 20000000 cycles: 6924929 heartbeat IPC: 2.88527 cumulative IPC: 2.88812 (Simulation time: 0 hr 0 min 40 sec) 
Heartbeat CPU 0 instructions: 30000003 cycles: 10433038 heartbeat IPC: 2.85054 cumulative IPC: 2.87548 (Simulation time: 0 hr 0 min 59 sec) 
Heartbeat CPU 0 instructions: 40000000 cycles: 13895580 heartbeat IPC: 2.88805 cumulative IPC: 2.87861 (Simulation time: 0 hr 1 min 18 sec) 
Heartbeat CPU 0 instructions: 50000002 cycles: 17357356 heartbeat IPC: 2.88869 cumulative IPC: 2.88062 (Simulation time: 0 hr 1 min 37 sec) 

Warmup complete CPU 0 instructions: 50000002 cycles: 17357356 (Simulation time: 0 hr 1 min 37 sec) 

Heartbeat CPU 0 instructions: 60000002 cycles: 28354190 heartbeat IPC: 0.909353 cumulative IPC: 0.909353 (Simulation time: 0 hr 1 min 54 sec) 
Heartbeat CPU 0 instructions: 70000001 cycles: 39284510 heartbeat IPC: 0.914886 cumulative IPC: 0.912111 (Simulation time: 0 hr 2 min 10 sec) 
Heartbeat CPU 0 instructions: 80000001 cycles: 50228850 heartbeat IPC: 0.913714 cumulative IPC: 0.912645 (Simulation time: 0 hr 2 min 29 sec) 
Heartbeat CPU 0 instructions: 90000002 cycles: 61168064 heartbeat IPC: 0.914143 cumulative IPC: 0.913019 (Simulation time: 0 hr 2 min 47 sec) 
Heartbeat CPU 0 instructions: 100000000 cycles: 72106849 heartbeat IPC: 0.914178 cumulative IPC: 0.91325 (Simulation time: 0 hr 3 min 3 sec) 
Finished CPU 0 instructions: 50000002 cycles: 54749500 cumulative IPC: 0.91325 (Simulation time: 0 hr 3 min 3 sec) 

ChampSim completed all CPUs

Region of Interest Statistics

CPU 0
XXX cumulative-IPC 0.91325
XXX instructions 50000002
XXX cycles 54749500
L1D TOTAL     ACCESS:   23076308  HIT:   23015869  MISS:      60439
L1D LOAD      ACCESS:    7895327  HIT:    7860327  MISS:      35000
L1D RFO       ACCESS:    7435415  HIT:    7428152  MISS:       7263
L1D PREFETCH  ACCESS:    7745566  HIT:    7727390  MISS:      18176
L1D WRITEBACK ACCESS:          0  HIT:          0  MISS:          0
L1D PREFETCH  REQUESTED:    7895732  ISSUED:    7784710
XXX L1D-USEFUL 5480
XXX L1D-USELESS 12697
L1D AVERAGE MISS LATENCY: 17.0024 cycles
L1I TOTAL     ACCESS:   14003427  HIT:    9337595  MISS:    4665832
L1I LOAD      ACCESS:    9019683  HIT:    6386680  MISS:    2633003
L1I RFO       ACCESS:          0  HIT:          0  MISS:          0
L1I PREFETCH  ACCESS:    4983744  HIT:    2950915  MISS:    2032829
L1I WRITEBACK ACCESS:          0  HIT:          0  MISS:          0
L1I PREFETCH  REQUESTED:    8839173  ISSUED:    8839173
XXX L1I-USEFUL 1336843
XXX L1I-USELESS 695991
L1I AVERAGE MISS LATENCY: 13.3775 cycles
L2C TOTAL     ACCESS:    7246828  HIT:    7244600  MISS:       2228
L2C LOAD      ACCESS:    2469465  HIT:    2469176  MISS:        289
L2C RFO       ACCESS:       7262  HIT:       7207  MISS:         55
L2C PREFETCH  ACCESS:    4754460  HIT:    4752587  MISS:       1873
L2C WRITEBACK ACCESS:      15641  HIT:      15630  MISS:         11
L2C PREFETCH  REQUESTED:    5818801  ISSUED:    5818801
XXX L2C-USEFUL 335
XXX L2C-USELESS 943
L2C AVERAGE MISS LATENCY: 117.855 cycles
LLC TOTAL     ACCESS:     758488  HIT:     755858  MISS:       2630
LLC LOAD      ACCESS:        288  HIT:        124  MISS:        164
LLC RFO       ACCESS:         55  HIT:         21  MISS:         34
LLC PREFETCH  ACCESS:     757242  HIT:     754826  MISS:       2416
LLC WRITEBACK ACCESS:        903  HIT:        887  MISS:         16
LLC PREFETCH  REQUESTED:          0  ISSUED:          0
XXX LLC-USEFUL 60
XXX LLC-USELESS 637
LLC AVERAGE MISS LATENCY: 193.738 cycles
Major fault: 0 Minor fault: 1929
XXX disp-0 2180394
XXX disp-1 0
XXX disp-2 11
XXX disp-3 252577
XXX disp-4 844413
XXX disp-5 503143
XXX disp-6 1362457
XXX disp-7 625687
XXX disp-8 766209
XXX disp-9 544759
XXX disp-10 410635
XXX disp-11 244834
XXX disp-12 139986
XXX disp-13 132006
XXX disp-14 158264
XXX disp-15 76883
XXX disp-16 183438
XXX disp-17 88761
XXX disp-18 375163
XXX disp-19 88711
XXX disp-20 167805
XXX disp-21 38128
XXX disp-22 17339
XXX disp-23 301637
XXX disp-24 0
XXX disp-25 0
XXX disp-26 0
XXX disp-27 0
XXX disp-28 0
XXX disp-29 0
XXX disp-30 0
XXX disp-31 0
XXX disp-32 0
XXX disp-33 0
XXX disp-34 0
XXX disp-35 0
XXX disp-36 0
XXX disp-37 0
XXX disp-38 0
XXX disp-39 0
XXX disp-40 0
XXX disp-41 0
XXX disp-42 0
XXX disp-43 0
XXX disp-44 0
XXX disp-45 0
XXX disp-46 0
XXX disp-47 2149
XXX disp-48 0
XXX disp-49 0
XXX disp-50 0
XXX disp-51 0
XXX disp-52 0
XXX disp-53 0
XXX disp-54 0
XXX disp-55 0
XXX disp-56 0
XXX disp-57 0
XXX disp-58 0
XXX disp-59 0
XXX disp-60 0
XXX disp-61 0
XXX disp-62 0
XXX disp-63 0
XXX disp-64 0
XXX disp-65 0
XXX diffBits-0 2180394
XXX diffBits-1 0
XXX diffBits-2 82627
XXX diffBits-3 372975
XXX diffBits-4 476916
XXX diffBits-5 1003976
XXX diffBits-6 604757
XXX diffBits-7 538210
XXX diffBits-8 701873
XXX diffBits-9 566191
XXX diffBits-10 371116
XXX diffBits-11 523501
XXX diffBits-12 218684
XXX diffBits-13 305294
XXX diffBits-14 96683
XXX diffBits-15 139747
XXX diffBits-16 233716
XXX diffBits-17 80117
XXX diffBits-18 209050
XXX diffBits-19 297257
XXX diffBits-20 144713
XXX diffBits-21 53788
XXX diffBits-22 301655
XXX diffBits-23 0
XXX diffBits-24 0
XXX diffBits-25 0
XXX diffBits-26 0
XXX diffBits-27 0
XXX diffBits-28 0
XXX diffBits-29 0
XXX diffBits-30 0
XXX diffBits-31 0
XXX diffBits-32 0
XXX diffBits-33 0
XXX diffBits-34 0
XXX diffBits-35 0
XXX diffBits-36 0
XXX diffBits-37 0
XXX diffBits-38 0
XXX diffBits-39 0
XXX diffBits-40 0
XXX diffBits-41 0
XXX diffBits-42 0
XXX diffBits-43 0
XXX diffBits-44 0
XXX diffBits-45 0
XXX diffBits-46 2149
XXX diffBits-47 0
XXX diffBits-48 0
XXX diffBits-49 0
XXX diffBits-50 0
XXX diffBits-51 0
XXX diffBits-52 0
XXX diffBits-53 0
XXX diffBits-54 0
XXX diffBits-55 0
XXX diffBits-56 0
XXX diffBits-57 0
XXX diffBits-58 0
XXX diffBits-59 0
XXX diffBits-60 0
XXX diffBits-61 0
XXX diffBits-62 0
XXX diffBits-63 0
XXX diffBits-64 0
XXX diffBits-65 0
CPU 0 L1D next line prefetcher final stats

DRAM Statistics
 CHANNEL 0
 RQ ROW_BUFFER_HIT:        461  ROW_BUFFER_MISS:       2153
 DBUS_CONGESTED:       1550
 WQ ROW_BUFFER_HIT:        351  ROW_BUFFER_MISS:       1453  FULL:          0

 AVG_CONGESTED_CYCLE: 6

CPU 0 Branch Prediction Accuracy: 94.2883% MPKI: 9.42576 Average ROB Occupancy at Mispredict: 37.8291

XXX total_mispredicts 471288
XXX total_target_mispredicts1 327149
XXX total_target_mispredicts2 329
XXX total_direction_mispredicts 143810
XXX mispredict_on_btb_hit 326461
XXX NOT_BRANCH: 0
XXX BRANCH_DIRECT_JUMP: 193
XXX BRANCH_INDIRECT: 0
XXX BRANCH_CONDITIONAL: 0
XXX BRANCH_DIRECT_CALL: 21
XXX BRANCH_INDIRECT_CALL: 43881
XXX BRANCH_RETURN: 282366
XXX BRANCH_OTHER: 0
Branch types
NOT_BRANCH: 41748437 83.4969%
BRANCH_DIRECT_JUMP: 468563 0.937126%
BRANCH_INDIRECT: 0 0%
BRANCH_CONDITIONAL: 5599755 11.1995%
BRANCH_DIRECT_CALL: 885105 1.77021%
BRANCH_INDIRECT_CALL: 206338 0.412676%
BRANCH_RETURN: 1091468 2.18294%
BRANCH_OTHER: 0 0%

XXX BTB_reads: 5659617
XXX BTB_writes: 1003
XXX PageBTB_reads: 0
XXX PageBTB_writes: 0
XXX PageBTB_readsBeforeWrite: 0
XXX RegionBTB_reads: 0
XXX RegionBTB_writes: 0
XXX RegionBTB_readsBeforeWrite: 0
XXX BTB_4D_Hits 450109
XXX BTB_6D_Hits 805608
XXX BTB_8D_Hits 901419
XXX BTB_12D_Hits 711135
XXX BTB_18D_Hits 601628
XXX BTB_25D_Hits 177675
XXX BTB_46D_Hits 0
XXX BTB_Ret_Hits 1091379
XXX BTB_4D_Misses 56
XXX BTB_6D_Misses 45
XXX BTB_8D_Misses 110
XXX BTB_12D_Misses 136
XXX BTB_18D_Misses 95
XXX BTB_25D_Misses 186
XXX BTB_46D_Misses 286
XXX BTB_Ret_Misses 89
XXX Num_unique_branches 2944
total instructions: 0
wc,tif,trb
15,41,129
22,113,202
19,90,124
22,108,208
33,187,222
25,118,205
25,110,281
21,99,180
16,85,75
32,164,348
22,107,205
26,113,235
41,198,302
16,55,115
14,66,108
15,59,107
12,41,132
40,225,184
21,98,132
25,113,194
17,125,86
19,83,133
14,61,131
17,75,113
20,95,162
17,84,119
19,64,138
23,129,152
22,99,142
22,81,215
30,182,307
21,101,228
29,165,221
12,49,93
19,82,142
15,63,76
15,33,142
18,99,165
11,69,51
13,66,93
13,51,120
16,72,100
13,54,158
19,123,135
20,109,182
15,69,116
22,118,120
18,58,218
11,56,72
28,146,168
14,37,195
17,70,125
22,98,151
12,55,71
18,62,178
14,62,152
20,112,98
39,181,249
23,119,180
18,77,169
20,120,143
15,76,135
20,67,216
27,102,248
28,154,168
15,71,137
22,84,189
19,107,123
21,101,140
26,132,201
14,72,90
19,117,126
22,124,141
18,99,141
23,89,245
17,69,94
31,146,287
15,66,126
26,74,278
13,87,68
35,181,352
571,2866,11120
17,109,138
17,67,108
28,124,270
20,78,150
19,74,192
32,208,159
23,101,270
12,50,108
25,130,192
15,37,189
20,92,154
31,148,244
23,87,292
18,96,142
24,132,180
14,59,121
20,86,125
20,68,212
23,102,157
22,86,185
19,89,158
24,158,164
27,135,220
19,94,179
16,50,175
26,102,227
15,75,118
27,121,296
16,81,127
30,188,251
28,142,209
21,94,177
35,151,297
31,194,229
13,53,124
18,76,125
20,106,149
19,91,172
24,118,266
18,62,165
17,88,141
17,56,189
28,121,312
20,79,236
15,57,113
24,104,224
24,106,158
11,52,100
23,105,177
14,56,78
22,100,147
17,66,158
18,83,178
22,88,151
23,86,211
16,59,142
22,101,169
18,98,116
30,156,208
27,134,189
20,94,168
21,88,137
39,237,354
15,74,85
19,116,149
20,93,173
19,102,97
21,86,151
21,72,200
16,56,106
16,71,140
27,117,278
21,93,222
18,93,168
19,90,120
18,81,183
17,87,152
22,112,172
13,49,81
21,79,214
22,104,124
29,126,282
16,108,112
17,66,157
21,59,259
23,129,149
17,74,172
24,96,196
25,160,129
30,166,186
12,56,130
24,139,152
18,84,136
17,64,145
16,59,115
15,94,97
19,92,225
26,114,238
21,75,202
17,78,157
20,77,200
24,35,236
21,113,202
29,145,220
26,101,238
20,85,180
18,64,235
24,109,229
28,110,169
23,85,269
10,35,89
22,139,149
22,110,190
15,74,137
26,78,244
17,46,155
35,147,309
8,47,33
21,82,206
22,90,192
20,116,151
20,86,152
27,140,230
35,189,228
37,172,287
26,98,318
28,180,156
34,181,330
20,109,160
19,93,168
16,91,170
29,159,241
36,209,362
30,137,257
17,70,185
27,104,279
35,219,256
29,124,332
18,72,126
25,107,217
20,107,177
25,158,210
14,48,142
26,109,261
14,45,110
14,46,107
20,103,139
16,79,133
22,113,141
12,35,139
17,70,129
23,104,194
32,188,208
23,115,175
15,41,188
28,149,192
14,59,117
17,88,132
15,68,140
26,118,237
10,54,105
1113,3353,24104
11,48,83
17,64,135
26,122,214
22,116,176
24,127,196
24,100,247
27,126,231
26,82,208
12,51,125
26,90,246
14,78,116
11,55,112
40,210,273
25,114,190
18,56,233
29,168,216
19,82,150
16,96,68
19,89,148
31,134,188
18,51,169
25,113,201
17,79,156
24,158,153
30,154,310
28,103,318
24,111,209
25,88,209
17,73,106
20,100,155
21,91,165
29,152,246
20,84,222
35,205,257
23,101,200
15,70,136
21,100,226
18,104,144
27,120,251
27,114,251
16,64,128
23,103,254
25,130,271
26,102,250
34,174,352
25,91,212
27,118,257
31,151,340
38,187,354
24,121,141
13,31,146
30,122,257
16,55,118
30,176,166
20,86,186
18,49,217
23,67,202
11,46,97
17,79,160
32,105,211
17,69,129
28,135,194
24,115,184
26,133,199
15,76,103
19,71,154
26,115,228
28,121,259
16,63,151
15,63,106
8,16,90
19,88,139
26,127,245
19,72,223
25,116,222
20,88,179
21,121,152
21,87,207
16,76,121
28,106,296
18,67,151
32,135,313
22,95,159
20,76,150
17,75,163
20,83,243
15,78,103
38,149,305
17,52,175
25,144,147
34,172,230
20,75,233
21,110,214
30,109,273
23,98,149
27,177,174
32,132,286
22,110,239
32,119,329
24,91,197
18,86,178
11,45,73
19,93,171
41,166,486
16,70,164
27,95,288
31,140,225
34,184,201
24,57,227
23,96,190
29,164,222
26,104,332
21,93,182
29,107,251
21,115,208
19,82,140
31,149,165
34,202,293
18,98,136
27,98,298
20,129,100
31,164,269
25,183,121
12,44,88
27,138,224
12,72,106
29,160,195
32,133,364
22,128,136
19,71,219
15,36,191
38,210,326
38,172,362
22,85,181
18,74,123
25,105,232
18,98,161
17,67,144
16,64,166
22,98,185
24,116,180
18,78,113
14,54,113
24,125,175
21,109,184
29,179,179
28,146,289
22,152,135
21,88,189
34,174,257
25,115,154
32,173,276
18,76,154
25,139,210
33,169,237
14,50,152
27,148,206
21,86,180
35,176,287
18,80,137
23,99,192
23,127,198
14,53,135
15,76,105
27,129,212
11,56,107
21,84,201
31,175,243
23,93,173
12,75,67
32,144,356
29,187,218
20,113,129
18,97,145
17,70,163
25,125,219
16,68,102
22,99,198
32,141,341
21,92,153
21,104,178
30,101,334
20,65,202
20,102,170
31,118,258
26,97,225
23,114,136
19,115,101
30,196,192
20,90,180
16,57,149
16,78,101
28,122,206
23,123,168
22,94,182
24,92,243
19,108,144
25,119,144
31,127,315
19,104,132
19,115,136
17,98,147
24,119,202
39,181,383
19,87,147
28,150,196
22,97,180
22,106,173
21,96,119
14,56,140
36,149,377
22,74,235
25,130,176
19,64,166
26,100,263
23,96,198
24,109,275
30,162,325
22,92,203
32,109,268
21,92,173
22,79,208
36,221,234
22,113,227
21,81,166
20,90,137
25,98,242
29,133,193
17,88,128
19,83,137
23,105,219
16,61,202
16,70,226
25,100,210
27,96,301
28,114,271
14,73,97
37,199,340
24,78,212
25,101,172
18,73,197
39,178,272
11,53,127
29,114,274
25,106,171
34,168,292
37,154,292
26,153,169
30,153,235
29,128,241
24,118,192
22,83,245
14,61,157
23,119,225
27,172,164
19,96,124
20,78,180
34,190,259
19,108,163
14,47,136
28,181,331
32,120,426
27,140,266
26,122,236
37,160,443
26,127,247
35,237,310
44,251,478
