Initialize SIGNATURE TABLE
ST_SET: 1
ST_WAY: 256
ST_TAG_BIT: 16
ST_TAG_MASK: ffff

Initialize PATTERN TABLE
PT_SET: 512
PT_WAY: 4
SIG_DELTA_BIT: 7
C_SIG_BIT: 4
C_DELTA_BIT: 4

Initialize PREFETCH FILTER
FILTER_SET: 1024

*** ChampSim Multicore Out-of-Order Simulator ***

Warmup Instructions: 50000000
Simulation Instructions: 50000000
Number of CPUs: 1
LLC sets: 2048
LLC ways: 16
Off-chip DRAM Size: 4096 MB Channels: 1 Width: 64-bit Data Rate: 3200 MT/s

CPU 0 runs /ChampSim-master-BTBX/dpc3_traces/server_038.champsimtrace.xz
Basic BTB sets: 4096 ways: 4 indirect buffer size: 4096 RAS size: 64
CPU 0 L1D next line prefetcher
Heartbeat CPU 0 instructions: 10000001 cycles: 3324333 heartbeat IPC: 3.00812 cumulative IPC: 3.00812 (Simulation time: 0 hr 0 min 19 sec) 
Heartbeat CPU 0 instructions: 20000003 cycles: 6651491 heartbeat IPC: 3.00557 cumulative IPC: 3.00684 (Simulation time: 0 hr 0 min 37 sec) 
Heartbeat CPU 0 instructions: 30000003 cycles: 9974815 heartbeat IPC: 3.00904 cumulative IPC: 3.00757 (Simulation time: 0 hr 0 min 56 sec) 
Heartbeat CPU 0 instructions: 40000001 cycles: 13303037 heartbeat IPC: 3.00461 cumulative IPC: 3.00683 (Simulation time: 0 hr 1 min 16 sec) 
Heartbeat CPU 0 instructions: 50000001 cycles: 16629149 heartbeat IPC: 3.00651 cumulative IPC: 3.00677 (Simulation time: 0 hr 1 min 37 sec) 

Warmup complete CPU 0 instructions: 50000001 cycles: 16629149 (Simulation time: 0 hr 1 min 37 sec) 

Heartbeat CPU 0 instructions: 60000000 cycles: 28086422 heartbeat IPC: 0.872808 cumulative IPC: 0.872808 (Simulation time: 0 hr 1 min 57 sec) 
Heartbeat CPU 0 instructions: 70000000 cycles: 39508510 heartbeat IPC: 0.875497 cumulative IPC: 0.87415 (Simulation time: 0 hr 2 min 18 sec) 
Heartbeat CPU 0 instructions: 80000001 cycles: 50958222 heartbeat IPC: 0.873384 cumulative IPC: 0.873895 (Simulation time: 0 hr 2 min 36 sec) 
Heartbeat CPU 0 instructions: 90000001 cycles: 62449968 heartbeat IPC: 0.87019 cumulative IPC: 0.872966 (Simulation time: 0 hr 2 min 56 sec) 
*** Reached end of trace for Core: 0 Repeating trace: /ChampSim-master-BTBX/dpc3_traces/server_038.champsimtrace.xz
Heartbeat CPU 0 instructions: 100000002 cycles: 73948402 heartbeat IPC: 0.869684 cumulative IPC: 0.872307 (Simulation time: 0 hr 3 min 13 sec) 
Finished CPU 0 instructions: 50000001 cycles: 57319253 cumulative IPC: 0.872307 (Simulation time: 0 hr 3 min 13 sec) 

ChampSim completed all CPUs

Region of Interest Statistics

CPU 0
XXX cumulative-IPC 0.872307
XXX instructions 50000001
XXX cycles 57319253
L1D TOTAL     ACCESS:   21151973  HIT:   20169653  MISS:     982320
L1D LOAD      ACCESS:    7515971  HIT:    7027563  MISS:     488408
L1D RFO       ACCESS:    6290215  HIT:    6223990  MISS:      66225
L1D PREFETCH  ACCESS:    7345787  HIT:    6918100  MISS:     427687
L1D WRITEBACK ACCESS:          0  HIT:          0  MISS:          0
L1D PREFETCH  REQUESTED:    7555111  ISSUED:    7455186
XXX L1D-USEFUL 120352
XXX L1D-USELESS 307338
L1D AVERAGE MISS LATENCY: 29.4436 cycles
L1I TOTAL     ACCESS:   14838736  HIT:    9785498  MISS:    5053238
L1I LOAD      ACCESS:    9402254  HIT:    6508159  MISS:    2894095
L1I RFO       ACCESS:          0  HIT:          0  MISS:          0
L1I PREFETCH  ACCESS:    5436482  HIT:    3277339  MISS:    2159143
L1I WRITEBACK ACCESS:          0  HIT:          0  MISS:          0
L1I PREFETCH  REQUESTED:    9772006  ISSUED:    9772006
XXX L1I-USEFUL 1244363
XXX L1I-USELESS 914788
L1I AVERAGE MISS LATENCY: 13.055 cycles
L2C TOTAL     ACCESS:    9457524  HIT:    9121434  MISS:     336090
L2C LOAD      ACCESS:    3025408  HIT:    2872851  MISS:     152557
L2C RFO       ACCESS:      66047  HIT:      35909  MISS:      30138
L2C PREFETCH  ACCESS:    6073406  HIT:    5921959  MISS:     151447
L2C WRITEBACK ACCESS:     292663  HIT:     290715  MISS:       1948
L2C PREFETCH  REQUESTED:    7163216  ISSUED:    7161303
XXX L2C-USEFUL 7449
XXX L2C-USELESS 143920
L2C AVERAGE MISS LATENCY: 44.3913 cycles
LLC TOTAL     ACCESS:    1588028  HIT:    1535818  MISS:      52210
LLC LOAD      ACCESS:     152536  HIT:     139904  MISS:      12632
LLC RFO       ACCESS:      30138  HIT:      24810  MISS:       5328
LLC PREFETCH  ACCESS:    1252127  HIT:    1218289  MISS:      33838
LLC WRITEBACK ACCESS:     153227  HIT:     152815  MISS:        412
LLC PREFETCH  REQUESTED:          0  ISSUED:          0
XXX LLC-USEFUL 3001
XXX LLC-USELESS 29284
LLC AVERAGE MISS LATENCY: 161.395 cycles
Major fault: 0 Minor fault: 5529
XXX disp-0 2477989
XXX disp-1 0
XXX disp-2 0
XXX disp-3 307698
XXX disp-4 921404
XXX disp-5 716116
XXX disp-6 1074521
XXX disp-7 701088
XXX disp-8 759076
XXX disp-9 489989
XXX disp-10 319082
XXX disp-11 275887
XXX disp-12 142267
XXX disp-13 144451
XXX disp-14 173243
XXX disp-15 185479
XXX disp-16 231336
XXX disp-17 96990
XXX disp-18 290216
XXX disp-19 165741
XXX disp-20 153410
XXX disp-21 73067
XXX disp-22 20269
XXX disp-23 341499
XXX disp-24 0
XXX disp-25 0
XXX disp-26 0
XXX disp-27 0
XXX disp-28 0
XXX disp-29 0
XXX disp-30 0
XXX disp-31 0
XXX disp-32 0
XXX disp-33 0
XXX disp-34 0
XXX disp-35 0
XXX disp-36 0
XXX disp-37 0
XXX disp-38 0
XXX disp-39 0
XXX disp-40 0
XXX disp-41 0
XXX disp-42 0
XXX disp-43 0
XXX disp-44 0
XXX disp-45 0
XXX disp-46 119315
XXX disp-47 0
XXX disp-48 0
XXX disp-49 0
XXX disp-50 0
XXX disp-51 0
XXX disp-52 0
XXX disp-53 0
XXX disp-54 0
XXX disp-55 0
XXX disp-56 0
XXX disp-57 0
XXX disp-58 0
XXX disp-59 0
XXX disp-60 0
XXX disp-61 0
XXX disp-62 0
XXX disp-63 0
XXX disp-64 0
XXX disp-65 0
XXX diffBits-0 2477989
XXX diffBits-1 0
XXX diffBits-2 78143
XXX diffBits-3 421291
XXX diffBits-4 608184
XXX diffBits-5 622641
XXX diffBits-6 967472
XXX diffBits-7 753807
XXX diffBits-8 655966
XXX diffBits-9 547447
XXX diffBits-10 391854
XXX diffBits-11 413429
XXX diffBits-12 145074
XXX diffBits-13 142395
XXX diffBits-14 147954
XXX diffBits-15 187634
XXX diffBits-16 364815
XXX diffBits-17 47077
XXX diffBits-18 171973
XXX diffBits-19 347225
XXX diffBits-20 178112
XXX diffBits-21 41281
XXX diffBits-22 349055
XXX diffBits-23 0
XXX diffBits-24 0
XXX diffBits-25 0
XXX diffBits-26 0
XXX diffBits-27 0
XXX diffBits-28 0
XXX diffBits-29 0
XXX diffBits-30 0
XXX diffBits-31 0
XXX diffBits-32 0
XXX diffBits-33 0
XXX diffBits-34 0
XXX diffBits-35 0
XXX diffBits-36 0
XXX diffBits-37 0
XXX diffBits-38 0
XXX diffBits-39 0
XXX diffBits-40 0
XXX diffBits-41 0
XXX diffBits-42 0
XXX diffBits-43 0
XXX diffBits-44 0
XXX diffBits-45 119315
XXX diffBits-46 0
XXX diffBits-47 0
XXX diffBits-48 0
XXX diffBits-49 0
XXX diffBits-50 0
XXX diffBits-51 0
XXX diffBits-52 0
XXX diffBits-53 0
XXX diffBits-54 0
XXX diffBits-55 0
XXX diffBits-56 0
XXX diffBits-57 0
XXX diffBits-58 0
XXX diffBits-59 0
XXX diffBits-60 0
XXX diffBits-61 0
XXX diffBits-62 0
XXX diffBits-63 0
XXX diffBits-64 0
XXX diffBits-65 0
CPU 0 L1D next line prefetcher final stats

DRAM Statistics
 CHANNEL 0
 RQ ROW_BUFFER_HIT:       8758  ROW_BUFFER_MISS:      43028
 DBUS_CONGESTED:      20862
 WQ ROW_BUFFER_HIT:       1237  ROW_BUFFER_MISS:      11483  FULL:          0

 AVG_CONGESTED_CYCLE: 4

CPU 0 Branch Prediction Accuracy: 92.4994% MPKI: 13.4915 Average ROB Occupancy at Mispredict: 40.221

XXX total_mispredicts 674575
XXX total_target_mispredicts1 482968
XXX total_target_mispredicts2 7993
XXX total_direction_mispredicts 183614
XXX mispredict_on_btb_hit 435919
XXX NOT_BRANCH: 0
XXX BRANCH_DIRECT_JUMP: 415
XXX BRANCH_INDIRECT: 0
XXX BRANCH_CONDITIONAL: 0
XXX BRANCH_DIRECT_CALL: 3573
XXX BRANCH_INDIRECT_CALL: 44717
XXX BRANCH_RETURN: 387214
XXX BRANCH_OTHER: 0
Branch types
NOT_BRANCH: 41006119 82.0122%
BRANCH_DIRECT_JUMP: 541911 1.08382%
BRANCH_INDIRECT: 59690 0.11938%
BRANCH_CONDITIONAL: 5915821 11.8316%
BRANCH_DIRECT_CALL: 1003583 2.00717%
BRANCH_INDIRECT_CALL: 234499 0.468998%
BRANCH_RETURN: 1238061 2.47612%
BRANCH_OTHER: 0 0%

XXX BTB_reads: 8095893
XXX BTB_writes: 51656
XXX PageBTB_reads: 0
XXX PageBTB_writes: 0
XXX PageBTB_readsBeforeWrite: 0
XXX RegionBTB_reads: 0
XXX RegionBTB_writes: 0
XXX RegionBTB_readsBeforeWrite: 0
XXX BTB_4D_Hits 553160
XXX BTB_6D_Hits 795457
XXX BTB_8D_Hits 970777
XXX BTB_12D_Hits 544640
XXX BTB_18D_Hits 703628
XXX BTB_25D_Hits 193180
XXX BTB_46D_Hits 37220
XXX BTB_Ret_Hits 1237955
XXX BTB_4D_Misses 13
XXX BTB_6D_Misses 50
XXX BTB_8D_Misses 138
XXX BTB_12D_Misses 7156
XXX BTB_18D_Misses 744
XXX BTB_25D_Misses 15776
XXX BTB_46D_Misses 27673
XXX BTB_Ret_Misses 106
XXX Num_unique_branches 3917
total instructions: 0
wc,tif,trb
2,5,25
7,13,42
4,5,41
4,7,28
5,26,68
5,11,30
8,40,40
2,5,20
9,29,66
11,28,203
491,5190,4179
6,18,92
6,36,65
11,63,128
4,5,57
3,3,28
5,5,36
3,2,7
8,28,125
3,5,10
17,112,147
2,0,5
5,5,40
2,1,6
10,27,78
4,9,47
8,23,57
1,0,9
8,49,106
8,22,107
10,32,180
3,4,16
5,7,28
6,20,40
4,7,28
4,5,30
4,2,29
5,12,32
4,1,22
5,17,45
4,10,10
625,4161,9578
4,5,22
6,15,29
5,3,53
3,3,13
3,5,26
7,22,33
21,104,276
117,682,1547
1,0,0
6,24,47
8,39,41
5,13,40
2,1,19
6,17,58
3,1,27
3,6,42
2,14,30
4,7,38
5,6,49
6,17,34
4,4,41
1,0,7
5,12,17
7,12,64
4,7,34
3,0,30
7,45,16
4,7,35
7,28,53
5,9,44
9,29,101
1,1,3
4,4,35
3,2,14
6,10,55
3,5,8
4,3,18
4,10,54
4,7,41
3,4,26
20,110,150
3,0,12
434,3301,6177
4,7,32
4,3,38
32,230,450
7,18,87
5,10,36
3,3,32
6,12,42
6,8,63
2,1,6
8,30,50
402,2006,5570
2,9,21
2,1,3
6,22,47
10,24,165
4,3,17
5,15,41
2,5,21
7,11,44
4,5,22
3,1,19
7,22,53
4,5,32
1,5,14
5,6,25
6,11,39
7,20,35
5,9,16
7,16,39
5,9,34
9,24,122
3,4,35
3,4,14
4,5,34
6,22,38
4,4,33
2,4,16
6,14,32
3,8,29
867,3892,17737
3,4,31
12,54,125
763,6591,10157
8,15,65
5,7,43
6,8,28
5,2,27
8,58,22
10,27,207
2,3,23
3,11,18
5,11,24
4,9,35
3,4,16
5,15,26
6,9,42
7,25,59
4,3,46
6,11,25
6,17,19
5,8,59
2,1,12
8,36,69
5,8,27
7,15,71
4,12,22
7,35,40
10,59,83
3,11,24
3,2,23
3,4,37
8,42,38
3,16,33
16,59,244
5,34,37
5,18,21
3,8,36
4,9,37
5,5,44
5,10,45
4,10,21
2,10,34
0,0,0
3,3,24
4,6,22
4,13,33
4,7,33
9,45,63
4,16,21
3,4,33
2,6,13
1,5,20
5,13,33
4,8,8
6,29,42
6,36,30
3,6,22
2,3,13
4,8,26
7,11,64
6,22,49
3,3,17
3,3,25
2,2,9
2,10,34
3,6,38
2,0,9
8,34,46
4,2,18
3,0,11
2,0,20
5,10,56
4,1,33
4,5,11
5,4,45
6,6,44
12,93,147
6,9,27
3,2,11
4,9,75
3,3,13
4,7,27
3,2,18
7,28,27
7,14,41
2,0,9
8,45,83
2,5,21
7,20,79
5,6,35
8,57,103
5,7,24
6,15,45
4,6,49
2,5,27
6,22,49
3,4,9
2,1,6
11,35,131
4,0,22
2,1,8
3,3,13
5,5,20
255,1002,5273
6,8,40
4,15,38
2,0,4
6,25,39
423,1897,8593
7,7,48
9,55,71
12,54,166
15,54,67
5,12,39
4,9,19
3,3,8
2,0,11
4,12,36
3,2,30
6,4,40
7,32,43
5,16,11
5,17,40
14,79,107
1,1,10
6,15,33
3,1,38
12,111,87
3,4,35
3,5,40
5,11,18
7,32,43
6,11,50
3,14,30
4,9,30
3,14,30
849,2976,18206
3,4,49
5,5,34
7,29,40
3,5,25
2,4,25
13,55,150
5,8,37
4,4,14
3,0,24
4,2,23
13,70,168
4,1,21
8,41,39
5,23,41
285,1137,5967
4,5,40
5,11,16
2,2,18
3,1,19
3,3,20
5,20,51
5,6,44
2,5,27
4,6,21
8,53,27
5,13,42
5,8,52
6,13,23
3,3,45
7,17,38
5,3,26
5,15,31
2,0,4
4,8,12
2,5,23
5,10,42
15,122,139
9,58,92
5,7,18
4,2,38
5,12,34
5,12,34
6,10,45
10,68,89
0,0,0
3,4,28
2,3,6
4,3,36
4,13,60
3,0,9
2,2,14
3,7,28
2,0,12
3,9,26
4,5,32
5,17,52
2,4,30
4,10,42
2,7,19
4,5,32
4,12,22
6,12,36
429,1713,6415
3,6,38
5,11,42
3,5,4
11,70,66
4,2,30
8,23,75
6,11,25
4,16,32
4,25,39
5,11,46
5,11,29
1,1,8
2,5,27
6,20,35
5,10,45
2,2,14
183,1900,1573
19,98,165
5,5,27
2,1,8
4,6,14
5,4,55
3,2,14
9,27,88
3,9,14
5,10,41
5,25,46
1,0,0
1,0,0
6,13,31
5,13,28
670,6829,3952
8,34,46
5,3,22
5,8,24
4,8,48
4,0,33
8,38,42
2,3,27
7,19,50
7,19,56
4,8,31
5,14,55
4,12,40
6380,108156,51076
5,13,47
5,8,49
5,7,36
5,11,32
21,159,84
11,86,83
3,6,22
3,7,27
4,10,48
3,3,25
1065,8458,8505
0,0,0
8,47,80
2,3,25
4,7,43
3,5,8
667,3541,13069
4,27,37
3,4,37
6,10,26
1,1,10
7,7,68
4,1,24
16,88,132
5,11,25
18,55,285
5,4,46
6,19,25
2,1,8
2,8,22
29,182,217
7,14,61
14,84,160
6,10,34
17,32,273
163,658,2157
7,33,38
2,4,32
9,60,73
4,9,28
7,12,61
6,14,36
8,46,100
5,12,59
4,11,24
5,6,35
5,6,19
4,10,45
5,20,44
5,22,46
4,6,35
2,0,12
12,64,116
14,70,101
5,14,44
1,5,14
4,4,44
4,21,35
32,364,412
6,5,55
4,7,31
6,17,38
16,70,210
2,11,33
7,6,70
7,24,56
6,12,58
4,14,34
5,6,44
4,7,17
16987,131418,241771
6,16,34
3,20,35
3,10,41
1388,9823,20051
2,1,18
5,6,40
7,27,49
6,16,50
5,11,14
8,33,47
3,3,17
6,13,54
2,13,12
8,34,46
7,26,49
6,13,38
5,9,35
10,23,143
7,23,32
5,3,57
6,16,54
5,13,54
5,27,44
4,9,51
2,1,13
4,8,27
2,4,0
4,7,49
2,6,20
12,35,169
4,3,40
3,2,33
4,9,43
8,33,62
4,8,38
4,22,30
8,24,56
7,16,39
5,8,23
3,5,29
2,2,17
6,16,39
7,28,47
4,2,28
4,5,19
7,16,45
1,3,22
4,7,13
6361,57218,101741
5,8,32
5,16,44
2,0,24
12,62,122
2,3,16
4,18,37
8,48,66
5,17,47
7,15,75
14,97,150
5,9,37
8,21,59
12,68,112
1,0,0
4,22,38
4,15,45
6,21,48
3,7,36
1259,9631,18035
3,19,36
11,60,109
5,21,41
