Initialize SIGNATURE TABLE
ST_SET: 1
ST_WAY: 256
ST_TAG_BIT: 16
ST_TAG_MASK: ffff

Initialize PATTERN TABLE
PT_SET: 512
PT_WAY: 4
SIG_DELTA_BIT: 7
C_SIG_BIT: 4
C_DELTA_BIT: 4

Initialize PREFETCH FILTER
FILTER_SET: 1024

*** ChampSim Multicore Out-of-Order Simulator ***

Warmup Instructions: 50000000
Simulation Instructions: 50000000
Number of CPUs: 1
LLC sets: 2048
LLC ways: 16
Off-chip DRAM Size: 4096 MB Channels: 1 Width: 64-bit Data Rate: 3200 MT/s

CPU 0 runs /ChampSim-master-BTBX/dpc3_traces/server_021.champsimtrace.xz
Basic BTB sets: 4096 ways: 4 indirect buffer size: 4096 RAS size: 64
CPU 0 L1D next line prefetcher
Heartbeat CPU 0 instructions: 10000000 cycles: 3625734 heartbeat IPC: 2.75806 cumulative IPC: 2.75806 (Simulation time: 0 hr 0 min 18 sec) 
Heartbeat CPU 0 instructions: 20000000 cycles: 7246498 heartbeat IPC: 2.76185 cumulative IPC: 2.75995 (Simulation time: 0 hr 0 min 37 sec) 
Heartbeat CPU 0 instructions: 30000003 cycles: 10897849 heartbeat IPC: 2.73871 cumulative IPC: 2.75284 (Simulation time: 0 hr 0 min 56 sec) 
Heartbeat CPU 0 instructions: 40000001 cycles: 14513478 heartbeat IPC: 2.76577 cumulative IPC: 2.75606 (Simulation time: 0 hr 1 min 15 sec) 
Heartbeat CPU 0 instructions: 50000002 cycles: 18151018 heartbeat IPC: 2.74911 cumulative IPC: 2.75467 (Simulation time: 0 hr 1 min 34 sec) 

Warmup complete CPU 0 instructions: 50000002 cycles: 18151018 (Simulation time: 0 hr 1 min 34 sec) 

Heartbeat CPU 0 instructions: 60000001 cycles: 37991048 heartbeat IPC: 0.504031 cumulative IPC: 0.504031 (Simulation time: 0 hr 1 min 57 sec) 
Heartbeat CPU 0 instructions: 70000000 cycles: 58021787 heartbeat IPC: 0.499233 cumulative IPC: 0.501621 (Simulation time: 0 hr 2 min 20 sec) 
Heartbeat CPU 0 instructions: 80000001 cycles: 77890494 heartbeat IPC: 0.503304 cumulative IPC: 0.50218 (Simulation time: 0 hr 2 min 43 sec) 
Heartbeat CPU 0 instructions: 90000001 cycles: 97951882 heartbeat IPC: 0.49847 cumulative IPC: 0.501248 (Simulation time: 0 hr 3 min 5 sec) 
Heartbeat CPU 0 instructions: 100000002 cycles: 117856943 heartbeat IPC: 0.502385 cumulative IPC: 0.501475 (Simulation time: 0 hr 3 min 28 sec) 
Finished CPU 0 instructions: 50000000 cycles: 99705925 cumulative IPC: 0.501475 (Simulation time: 0 hr 3 min 28 sec) 

ChampSim completed all CPUs

Region of Interest Statistics

CPU 0
XXX cumulative-IPC 0.501475
XXX instructions 50000000
XXX cycles 99705925
L1D TOTAL     ACCESS:   20181840  HIT:   17978151  MISS:    2203689
L1D LOAD      ACCESS:    7724882  HIT:    7044942  MISS:     679940
L1D RFO       ACCESS:    5938809  HIT:    4962220  MISS:     976589
L1D PREFETCH  ACCESS:    6518149  HIT:    5970989  MISS:     547160
L1D WRITEBACK ACCESS:          0  HIT:          0  MISS:          0
L1D PREFETCH  REQUESTED:    7772592  ISSUED:    7615657
XXX L1D-USEFUL 225225
XXX L1D-USELESS 321930
L1D AVERAGE MISS LATENCY: 168.174 cycles
L1I TOTAL     ACCESS:   14670092  HIT:   11564240  MISS:    3105852
L1I LOAD      ACCESS:   10268948  HIT:    8481860  MISS:    1787088
L1I RFO       ACCESS:          0  HIT:          0  MISS:          0
L1I PREFETCH  ACCESS:    4401144  HIT:    3082380  MISS:    1318764
L1I WRITEBACK ACCESS:          0  HIT:          0  MISS:          0
L1I PREFETCH  REQUESTED:    7072241  ISSUED:    7072241
XXX L1I-USEFUL 793467
XXX L1I-USELESS 525313
L1I AVERAGE MISS LATENCY: 15.4714 cycles
L2C TOTAL     ACCESS:    8205572  HIT:    6311269  MISS:    1894303
L2C LOAD      ACCESS:    2062353  HIT:    1748878  MISS:     313475
L2C RFO       ACCESS:     976044  HIT:      20201  MISS:     955843
L2C PREFETCH  ACCESS:    3986906  HIT:    3364276  MISS:     622630
L2C WRITEBACK ACCESS:    1180269  HIT:    1177914  MISS:       2355
L2C PREFETCH  REQUESTED:    4689147  ISSUED:    4686391
XXX L2C-USEFUL 37122
XXX L2C-USELESS 585420
L2C AVERAGE MISS LATENCY: 198.633 cycles
LLC TOTAL     ACCESS:    3992537  HIT:    2585913  MISS:    1406624
LLC LOAD      ACCESS:     313402  HIT:     228459  MISS:      84943
LLC RFO       ACCESS:     955726  HIT:     144676  MISS:     811050
LLC PREFETCH  ACCESS:    1608598  HIT:    1100106  MISS:     508492
LLC WRITEBACK ACCESS:    1114811  HIT:    1112672  MISS:       2139
LLC PREFETCH  REQUESTED:          0  ISSUED:          0
XXX LLC-USEFUL 31966
XXX LLC-USELESS 474767
LLC AVERAGE MISS LATENCY: 268.868 cycles
Major fault: 0 Minor fault: 22292
XXX disp-0 1834294
XXX disp-1 0
XXX disp-2 0
XXX disp-3 836370
XXX disp-4 867157
XXX disp-5 1140136
XXX disp-6 1429374
XXX disp-7 642929
XXX disp-8 616171
XXX disp-9 393404
XXX disp-10 246453
XXX disp-11 211796
XXX disp-12 130436
XXX disp-13 129465
XXX disp-14 129607
XXX disp-15 143055
XXX disp-16 206327
XXX disp-17 72607
XXX disp-18 214532
XXX disp-19 169483
XXX disp-20 102319
XXX disp-21 32482
XXX disp-22 9781
XXX disp-23 201593
XXX disp-24 0
XXX disp-25 0
XXX disp-26 0
XXX disp-27 0
XXX disp-28 0
XXX disp-29 0
XXX disp-30 0
XXX disp-31 0
XXX disp-32 0
XXX disp-33 0
XXX disp-34 0
XXX disp-35 0
XXX disp-36 0
XXX disp-37 0
XXX disp-38 0
XXX disp-39 0
XXX disp-40 0
XXX disp-41 0
XXX disp-42 0
XXX disp-43 0
XXX disp-44 0
XXX disp-45 0
XXX disp-46 100981
XXX disp-47 0
XXX disp-48 0
XXX disp-49 0
XXX disp-50 0
XXX disp-51 0
XXX disp-52 0
XXX disp-53 0
XXX disp-54 0
XXX disp-55 0
XXX disp-56 0
XXX disp-57 0
XXX disp-58 0
XXX disp-59 0
XXX disp-60 0
XXX disp-61 0
XXX disp-62 0
XXX disp-63 0
XXX disp-64 0
XXX disp-65 0
XXX diffBits-0 1834294
XXX diffBits-1 0
XXX diffBits-2 709085
XXX diffBits-3 473565
XXX diffBits-4 425897
XXX diffBits-5 1092759
XXX diffBits-6 770924
XXX diffBits-7 585492
XXX diffBits-8 572911
XXX diffBits-9 1015197
XXX diffBits-10 306857
XXX diffBits-11 356419
XXX diffBits-12 108615
XXX diffBits-13 135033
XXX diffBits-14 107077
XXX diffBits-15 144136
XXX diffBits-16 326198
XXX diffBits-17 35763
XXX diffBits-18 118085
XXX diffBits-19 306913
XXX diffBits-20 101182
XXX diffBits-21 31613
XXX diffBits-22 201756
XXX diffBits-23 0
XXX diffBits-24 0
XXX diffBits-25 0
XXX diffBits-26 0
XXX diffBits-27 0
XXX diffBits-28 0
XXX diffBits-29 0
XXX diffBits-30 0
XXX diffBits-31 0
XXX diffBits-32 0
XXX diffBits-33 0
XXX diffBits-34 0
XXX diffBits-35 0
XXX diffBits-36 0
XXX diffBits-37 0
XXX diffBits-38 0
XXX diffBits-39 0
XXX diffBits-40 0
XXX diffBits-41 0
XXX diffBits-42 0
XXX diffBits-43 0
XXX diffBits-44 0
XXX diffBits-45 100981
XXX diffBits-46 0
XXX diffBits-47 0
XXX diffBits-48 0
XXX diffBits-49 0
XXX diffBits-50 0
XXX diffBits-51 0
XXX diffBits-52 0
XXX diffBits-53 0
XXX diffBits-54 0
XXX diffBits-55 0
XXX diffBits-56 0
XXX diffBits-57 0
XXX diffBits-58 0
XXX diffBits-59 0
XXX diffBits-60 0
XXX diffBits-61 0
XXX diffBits-62 0
XXX diffBits-63 0
XXX diffBits-64 0
XXX diffBits-65 0
CPU 0 L1D next line prefetcher final stats

DRAM Statistics
 CHANNEL 0
 RQ ROW_BUFFER_HIT:     427651  ROW_BUFFER_MISS:     976627
 DBUS_CONGESTED:    1312528
 WQ ROW_BUFFER_HIT:     246975  ROW_BUFFER_MISS:     652378  FULL:          0

 AVG_CONGESTED_CYCLE: 6

CPU 0 Branch Prediction Accuracy: 94.7818% MPKI: 8.55926 Average ROB Occupancy at Mispredict: 66.2436

XXX total_mispredicts 427963
XXX total_target_mispredicts1 291986
XXX total_target_mispredicts2 3105
XXX total_direction_mispredicts 132872
XXX mispredict_on_btb_hit 276370
XXX NOT_BRANCH: 0
XXX BRANCH_DIRECT_JUMP: 182
XXX BRANCH_INDIRECT: 0
XXX BRANCH_CONDITIONAL: 0
XXX BRANCH_DIRECT_CALL: 126
XXX BRANCH_INDIRECT_CALL: 29373
XXX BRANCH_RETURN: 246689
XXX BRANCH_OTHER: 0
Branch types
NOT_BRANCH: 41798354 83.5967%
BRANCH_DIRECT_JUMP: 445210 0.89042%
BRANCH_INDIRECT: 50481 0.100962%
BRANCH_CONDITIONAL: 5868216 11.7364%
BRANCH_DIRECT_CALL: 758222 1.51644%
BRANCH_INDIRECT_CALL: 160492 0.320984%
BRANCH_RETURN: 918714 1.83743%
BRANCH_OTHER: 0 0%

XXX BTB_reads: 5137788
XXX BTB_writes: 17329
XXX PageBTB_reads: 0
XXX PageBTB_writes: 0
XXX PageBTB_readsBeforeWrite: 0
XXX RegionBTB_reads: 0
XXX RegionBTB_writes: 0
XXX RegionBTB_readsBeforeWrite: 0
XXX BTB_4D_Hits 792598
XXX BTB_6D_Hits 933000
XXX BTB_8D_Hits 1087808
XXX BTB_12D_Hits 452839
XXX BTB_18D_Hits 567289
XXX BTB_25D_Hits 116410
XXX BTB_46D_Hits 39648
XXX BTB_Ret_Hits 918663
XXX BTB_4D_Misses 52
XXX BTB_6D_Misses 51
XXX BTB_8D_Misses 362
XXX BTB_12D_Misses 582
XXX BTB_18D_Misses 658
XXX BTB_25D_Misses 3759
XXX BTB_46D_Misses 11814
XXX BTB_Ret_Misses 51
XXX Num_unique_branches 4484
total instructions: 0
wc,tif,trb
2,5,25
8,34,46
7,23,98
7,13,58
4,23,46
6,26,40
8,35,45
4,13,62
9,26,65
99,529,1853
89,552,1073
12,47,199
10,45,144
8,31,77
6,7,69
5,20,45
107,843,1682
5,14,11
5,9,44
5,11,28
10,61,75
5,4,23
6,6,50
5,5,22
9,28,72
5,10,30
11,56,99
4,24,35
4,7,48
16,78,186
28,223,391
5,10,26
6,13,51
7,20,51
4,4,31
7,24,47
4,0,28
5,12,32
5,5,27
5,17,45
5,7,20
68,445,1037
4,5,22
7,21,48
6,11,76
5,4,42
5,9,42
38,437,194
23,114,241
596,4931,7177
4,23,46
115,541,789
10,57,53
3,3,21
5,3,29
8,35,64
4,6,47
6,8,67
7,46,72
4,1,34
8,26,54
5,17,29
6,16,52
1,0,7
6,18,18
8,26,72
5,19,47
3,0,26
7,38,23
6,13,63
5,16,41
9,37,92
9,22,113
5,14,11
4,4,35
5,14,22
7,22,54
5,9,26
5,8,24
6,38,76
5,9,44
2,3,23
14,74,122
4,2,19
478,3954,6501
4,13,26
12,30,94
8,14,66
8,17,63
14,35,103
3,8,19
6,12,42
12,53,102
2,6,20
8,42,38
9,45,82
4,12,37
2,1,3
3,5,23
17,39,307
6,19,45
6,18,47
4,8,31
7,28,47
5,9,22
6,13,31
7,33,42
8,15,68
3,6,25
5,6,25
5,7,39
7,25,30
4,8,33
64,373,1003
5,9,34
50,336,811
4,4,42
6,15,40
6,6,44
8,26,54
4,4,33
3,15,24
5,10,33
3,8,31
6,21,89
12,140,106
13,32,134
23,171,283
35,245,510
5,17,47
7,21,34
7,16,39
97,710,382
5,12,83
1,3,16
26,160,390
5,11,24
5,9,39
2,1,8
5,11,14
10,23,84
10,40,64
7,13,93
8,34,46
7,24,31
5,8,65
4,4,28
8,25,55
41,228,309
65,113,465
5,15,26
7,35,40
6,31,44
7,29,80
4,2,30
4,13,33
7,30,25
5,17,36
50,196,846
16,135,110
8,37,43
3,8,36
7,33,42
5,6,43
5,11,44
4,13,26
4,11,44
11,40,174
3,3,19
5,8,27
5,13,33
6,14,38
13,61,101
3,5,6
5,9,56
6,17,45
2,5,20
8,34,46
3,5,4
8,53,62
6,19,31
6,8,47
3,7,20
7,12,61
7,14,47
8,29,62
3,3,17
3,3,25
3,4,16
5,7,53
3,6,38
3,5,10
16,86,126
4,1,23
3,2,18
4,8,35
6,12,63
6,4,46
4,5,11
5,3,46
4,9,25
23,135,318
6,19,31
4,12,41
4,5,41
3,3,13
5,12,25
6,14,37
7,15,40
11,75,80
2,0,9
9,50,55
2,10,22
5,17,62
6,6,54
10,53,111
5,7,24
5,13,44
5,15,38
4,6,35
7,38,37
4,6,18
3,5,6
8,41,80
2,0,11
3,1,13
3,3,13
5,9,34
8,15,85
7,23,32
6,27,70
2,0,4
8,33,47
44,205,820
7,27,53
9,41,71
6,15,81
10,39,85
4,8,32
5,15,38
4,6,24
6,25,43
9,45,84
9,33,97
6,15,21
6,16,34
5,16,11
4,5,30
7,30,47
2,11,19
5,5,24
5,2,41
16,102,114
5,5,38
3,12,27
4,6,18
48,532,428
6,11,50
3,5,25
5,5,40
4,10,38
7,14,98
5,6,58
4,5,36
8,23,61
4,9,25
5,5,38
14,70,148
6,15,37
7,16,53
3,0,24
6,8,53
147,1008,2184
7,14,61
32,290,276
5,29,35
46,162,739
11,48,107
7,19,42
2,3,17
8,43,64
5,5,41
7,42,59
5,6,44
2,5,27
3,1,15
19,85,178
4,8,27
7,8,74
5,6,19
6,11,53
5,11,32
7,25,30
4,3,24
6,10,34
4,8,12
4,24,40
8,50,51
7,26,67
13,85,99
7,35,41
1,0,19
7,23,53
10,62,81
7,25,44
203,1579,3026
0,0,0
6,10,65
6,27,46
4,9,36
5,10,52
5,15,26
5,32,39
4,15,31
4,9,49
9,50,76
3,7,21
4,17,47
2,4,30
4,11,41
4,9,28
8,21,59
5,12,31
11,72,93
6,6,45
4,5,36
7,19,42
4,7,9
8,50,70
5,13,38
6,15,61
10,61,48
7,34,83
4,10,36
229,1597,3844
20,111,209
4,9,26
3,10,41
6,18,37
84,382,1394
6,38,37
85,483,1388
187,1093,2340
5,5,27
4,6,14
4,6,14
8,19,95
6,16,55
28,84,270
6,18,26
5,29,42
12,79,100
4,15,26
2,0,19
11,77,50
11,31,106
22,218,112
9,50,55
5,12,13
7,22,47
3,5,26
6,2,42
18,138,140
2,3,27
7,19,50
17,92,155
5,15,22
7,25,69
5,12,40
2634,24585,36014
9,33,101
8,24,94
6,12,36
7,15,58
143,738,1812
8,35,45
3,6,22
5,7,53
4,4,40
5,4,31
13,78,79
2,2,18
5,19,45
1,2,17
11,33,153
5,5,20
9,26,146
13,77,167
3,4,37
7,28,27
2,6,30
7,7,68
7,41,64
13,68,103
5,11,25
13,52,199
4,4,39
7,28,41
5,1,28
4,8,31
12,96,72
8,23,77
17,58,247
7,5,50
5,8,33
151,474,1885
7,33,38
3,4,39
9,63,70
6,22,33
10,29,69
7,17,38
16,72,177
12,44,160
16,136,173
5,9,38
7,36,19
7,12,64
6,12,52
6,23,52
4,6,35
3,0,31
6,6,48
26,222,175
4,19,50
2,9,35
5,4,53
3,6,18
7,39,106
7,9,60
7,17,56
7,37,43
9,33,72
75,299,1550
5,3,53
9,37,87
7,15,74
6,8,58
7,21,59
5,7,24
468,3421,6396
16,121,111
3,20,35
5,18,73
14,68,120
3,1,23
6,13,53
6,9,42
7,17,54
5,15,10
128,724,2356
6,17,52
57,427,784
11,73,137
7,25,30
13,58,149
9,53,73
17,63,230
290,2283,4883
580,4935,4681
7,13,85
5,10,41
8,38,82
4,12,34
5,9,51
2,1,12
4,8,27
4,11,21
8,28,108
13,71,147
18,73,241
5,3,45
4,3,36
161,1856,1229
10,44,93
9,44,133
134,1269,1573
11,58,65
7,24,45
7,22,53
5,15,40
4,3,36
8,38,47
364,3300,4200
3,4,7
5,5,24
12,80,75
3,4,37
8,42,38
6,25,39
11,77,113
5,16,44
5,1,41
18,80,38
5,10,52
3,5,25
10,66,64
6,21,47
4,7,42
11,57,103
3,6,22
7,18,53
19,107,126
1,2,17
9,46,93
3,0,35
197,2282,2447
7,38,89
16,107,203
8,73,95
12,78,116
5,16,46
