Initialize SIGNATURE TABLE
ST_SET: 1
ST_WAY: 256
ST_TAG_BIT: 16
ST_TAG_MASK: ffff

Initialize PATTERN TABLE
PT_SET: 512
PT_WAY: 4
SIG_DELTA_BIT: 7
C_SIG_BIT: 4
C_DELTA_BIT: 4

Initialize PREFETCH FILTER
FILTER_SET: 1024

*** ChampSim Multicore Out-of-Order Simulator ***

Warmup Instructions: 50000000
Simulation Instructions: 50000000
Number of CPUs: 1
LLC sets: 2048
LLC ways: 16
Off-chip DRAM Size: 4096 MB Channels: 1 Width: 64-bit Data Rate: 3200 MT/s

CPU 0 runs /ChampSim-master-BTBX/dpc3_traces/server_015.champsimtrace.xz
Basic BTB sets: 4096 ways: 4 indirect buffer size: 4096 RAS size: 64
CPU 0 L1D next line prefetcher
Heartbeat CPU 0 instructions: 10000002 cycles: 3519358 heartbeat IPC: 2.84143 cumulative IPC: 2.84143 (Simulation time: 0 hr 0 min 20 sec) 
Heartbeat CPU 0 instructions: 20000001 cycles: 7106823 heartbeat IPC: 2.78748 cumulative IPC: 2.8142 (Simulation time: 0 hr 0 min 39 sec) 
Heartbeat CPU 0 instructions: 30000001 cycles: 10645777 heartbeat IPC: 2.82569 cumulative IPC: 2.81802 (Simulation time: 0 hr 1 min 0 sec) 
Heartbeat CPU 0 instructions: 40000002 cycles: 14193819 heartbeat IPC: 2.81846 cumulative IPC: 2.81813 (Simulation time: 0 hr 1 min 18 sec) 
Heartbeat CPU 0 instructions: 50000002 cycles: 17742078 heartbeat IPC: 2.81828 cumulative IPC: 2.81816 (Simulation time: 0 hr 1 min 37 sec) 

Warmup complete CPU 0 instructions: 50000002 cycles: 17742078 (Simulation time: 0 hr 1 min 37 sec) 

Heartbeat CPU 0 instructions: 60000002 cycles: 29134420 heartbeat IPC: 0.877783 cumulative IPC: 0.877783 (Simulation time: 0 hr 1 min 57 sec) 
Heartbeat CPU 0 instructions: 70000003 cycles: 40530451 heartbeat IPC: 0.877499 cumulative IPC: 0.877641 (Simulation time: 0 hr 2 min 16 sec) 
Heartbeat CPU 0 instructions: 80000000 cycles: 51928141 heartbeat IPC: 0.87737 cumulative IPC: 0.877551 (Simulation time: 0 hr 2 min 34 sec) 
Heartbeat CPU 0 instructions: 90000003 cycles: 63329831 heartbeat IPC: 0.877063 cumulative IPC: 0.877429 (Simulation time: 0 hr 2 min 53 sec) 
Heartbeat CPU 0 instructions: 100000003 cycles: 74727423 heartbeat IPC: 0.877378 cumulative IPC: 0.877419 (Simulation time: 0 hr 3 min 11 sec) 
Finished CPU 0 instructions: 50000001 cycles: 56985345 cumulative IPC: 0.877419 (Simulation time: 0 hr 3 min 11 sec) 

ChampSim completed all CPUs

Region of Interest Statistics

CPU 0
XXX cumulative-IPC 0.877419
XXX instructions 50000001
XXX cycles 56985345
L1D TOTAL     ACCESS:   23172490  HIT:   23154610  MISS:      17880
L1D LOAD      ACCESS:    7317044  HIT:    7316510  MISS:        534
L1D RFO       ACCESS:    8663418  HIT:    8663323  MISS:         95
L1D PREFETCH  ACCESS:    7192028  HIT:    7174777  MISS:      17251
L1D WRITEBACK ACCESS:          0  HIT:          0  MISS:          0
L1D PREFETCH  REQUESTED:    7317141  ISSUED:    7220363
XXX L1D-USEFUL 86
XXX L1D-USELESS 17162
L1D AVERAGE MISS LATENCY: 15.7662 cycles
L1I TOTAL     ACCESS:   14881522  HIT:   12112109  MISS:    2769413
L1I LOAD      ACCESS:    9419663  HIT:    7731920  MISS:    1687743
L1I RFO       ACCESS:          0  HIT:          0  MISS:          0
L1I PREFETCH  ACCESS:    5461859  HIT:    4380189  MISS:    1081670
L1I WRITEBACK ACCESS:          0  HIT:          0  MISS:          0
L1I PREFETCH  REQUESTED:    7963135  ISSUED:    7963135
XXX L1I-USEFUL 595976
XXX L1I-USELESS 485702
L1I AVERAGE MISS LATENCY: 13.4152 cycles
L2C TOTAL     ACCESS:    4168242  HIT:    4167937  MISS:        305
L2C LOAD      ACCESS:    1572216  HIT:    1572138  MISS:         78
L2C RFO       ACCESS:         95  HIT:         86  MISS:          9
L2C PREFETCH  ACCESS:    2595580  HIT:    2595363  MISS:        217
L2C WRITEBACK ACCESS:        351  HIT:        350  MISS:          1
L2C PREFETCH  REQUESTED:    3260427  ISSUED:    3260427
XXX L2C-USEFUL 90
XXX L2C-USELESS 122
L2C AVERAGE MISS LATENCY: 86.823 cycles
LLC TOTAL     ACCESS:     450003  HIT:     449387  MISS:        616
LLC LOAD      ACCESS:         77  HIT:         67  MISS:         10
LLC RFO       ACCESS:          9  HIT:          8  MISS:          1
LLC PREFETCH  ACCESS:     449818  HIT:     449215  MISS:        603
LLC WRITEBACK ACCESS:         99  HIT:         97  MISS:          2
LLC PREFETCH  REQUESTED:          0  ISSUED:          0
XXX LLC-USEFUL 5
XXX LLC-USELESS 217
LLC AVERAGE MISS LATENCY: 214.416 cycles
Major fault: 0 Minor fault: 1891
XXX disp-0 2592387
XXX disp-1 0
XXX disp-2 11
XXX disp-3 231073
XXX disp-4 786947
XXX disp-5 860077
XXX disp-6 1384305
XXX disp-7 628294
XXX disp-8 651199
XXX disp-9 495503
XXX disp-10 375198
XXX disp-11 407845
XXX disp-12 100476
XXX disp-13 74199
XXX disp-14 219636
XXX disp-15 181878
XXX disp-16 124558
XXX disp-17 16374
XXX disp-18 88141
XXX disp-19 339175
XXX disp-20 160343
XXX disp-21 123268
XXX disp-22 41
XXX disp-23 518328
XXX disp-24 0
XXX disp-25 0
XXX disp-26 0
XXX disp-27 0
XXX disp-28 0
XXX disp-29 0
XXX disp-30 0
XXX disp-31 0
XXX disp-32 0
XXX disp-33 0
XXX disp-34 0
XXX disp-35 0
XXX disp-36 0
XXX disp-37 0
XXX disp-38 0
XXX disp-39 0
XXX disp-40 0
XXX disp-41 0
XXX disp-42 0
XXX disp-43 0
XXX disp-44 0
XXX disp-45 0
XXX disp-46 0
XXX disp-47 2149
XXX disp-48 0
XXX disp-49 0
XXX disp-50 0
XXX disp-51 0
XXX disp-52 0
XXX disp-53 0
XXX disp-54 0
XXX disp-55 0
XXX disp-56 0
XXX disp-57 0
XXX disp-58 0
XXX disp-59 0
XXX disp-60 0
XXX disp-61 0
XXX disp-62 0
XXX disp-63 0
XXX disp-64 0
XXX disp-65 0
XXX diffBits-0 2592387
XXX diffBits-1 0
XXX diffBits-2 109028
XXX diffBits-3 352906
XXX diffBits-4 578407
XXX diffBits-5 1184736
XXX diffBits-6 800177
XXX diffBits-7 569593
XXX diffBits-8 639419
XXX diffBits-9 551671
XXX diffBits-10 539797
XXX diffBits-11 479260
XXX diffBits-12 73032
XXX diffBits-13 61051
XXX diffBits-14 118706
XXX diffBits-15 73371
XXX diffBits-16 88766
XXX diffBits-17 2289
XXX diffBits-18 58027
XXX diffBits-19 602317
XXX diffBits-20 244341
XXX diffBits-21 121629
XXX diffBits-22 518346
XXX diffBits-23 0
XXX diffBits-24 0
XXX diffBits-25 0
XXX diffBits-26 0
XXX diffBits-27 0
XXX diffBits-28 0
XXX diffBits-29 0
XXX diffBits-30 0
XXX diffBits-31 0
XXX diffBits-32 0
XXX diffBits-33 0
XXX diffBits-34 0
XXX diffBits-35 0
XXX diffBits-36 0
XXX diffBits-37 0
XXX diffBits-38 0
XXX diffBits-39 0
XXX diffBits-40 0
XXX diffBits-41 0
XXX diffBits-42 0
XXX diffBits-43 0
XXX diffBits-44 0
XXX diffBits-45 0
XXX diffBits-46 2149
XXX diffBits-47 0
XXX diffBits-48 0
XXX diffBits-49 0
XXX diffBits-50 0
XXX diffBits-51 0
XXX diffBits-52 0
XXX diffBits-53 0
XXX diffBits-54 0
XXX diffBits-55 0
XXX diffBits-56 0
XXX diffBits-57 0
XXX diffBits-58 0
XXX diffBits-59 0
XXX diffBits-60 0
XXX diffBits-61 0
XXX diffBits-62 0
XXX diffBits-63 0
XXX diffBits-64 0
XXX diffBits-65 0
CPU 0 L1D next line prefetcher final stats

DRAM Statistics
 CHANNEL 0
 RQ ROW_BUFFER_HIT:        104  ROW_BUFFER_MISS:        510
 DBUS_CONGESTED:        319
 WQ ROW_BUFFER_HIT:         63  ROW_BUFFER_MISS:        287  FULL:          0

 AVG_CONGESTED_CYCLE: 6

CPU 0 Branch Prediction Accuracy: 93.9933% MPKI: 10.1234 Average ROB Occupancy at Mispredict: 60.9879

XXX total_mispredicts 506170
XXX total_target_mispredicts1 374077
XXX total_target_mispredicts2 28
XXX total_direction_mispredicts 132065
XXX mispredict_on_btb_hit 374031
XXX NOT_BRANCH: 0
XXX BRANCH_DIRECT_JUMP: 2
XXX BRANCH_INDIRECT: 0
XXX BRANCH_CONDITIONAL: 0
XXX BRANCH_DIRECT_CALL: 5
XXX BRANCH_INDIRECT_CALL: 14573
XXX BRANCH_RETURN: 359451
XXX BRANCH_OTHER: 0
Branch types
NOT_BRANCH: 41572927 83.1459%
BRANCH_DIRECT_JUMP: 436253 0.872506%
BRANCH_INDIRECT: 0 0%
BRANCH_CONDITIONAL: 5395869 10.7917%
BRANCH_DIRECT_CALL: 1173383 2.34677%
BRANCH_INDIRECT_CALL: 123910 0.24782%
BRANCH_RETURN: 1297306 2.59461%
BRANCH_OTHER: 0 0%

XXX BTB_reads: 6075048
XXX BTB_writes: 67
XXX PageBTB_reads: 0
XXX PageBTB_writes: 0
XXX PageBTB_readsBeforeWrite: 0
XXX RegionBTB_reads: 0
XXX RegionBTB_writes: 0
XXX RegionBTB_readsBeforeWrite: 0
XXX BTB_4D_Hits 504334
XXX BTB_6D_Hits 990896
XXX BTB_8D_Hits 873201
XXX BTB_12D_Hits 573713
XXX BTB_18D_Hits 595308
XXX BTB_25D_Hits 320531
XXX BTB_46D_Hits 0
XXX BTB_Ret_Hits 1297302
XXX BTB_4D_Misses 4
XXX BTB_6D_Misses 3
XXX BTB_8D_Misses 3
XXX BTB_12D_Misses 14
XXX BTB_18D_Misses 1
XXX BTB_25D_Misses 16
XXX BTB_46D_Misses 22
XXX BTB_Ret_Misses 4
XXX Num_unique_branches 1882
total instructions: 0
wc,tif,trb
15,30,124
23,88,196
19,93,113
24,85,257
26,105,212
26,127,227
18,82,176
18,85,173
14,78,86
27,133,274
13,58,111
30,113,310
37,128,302
13,42,100
14,61,118
13,49,79
17,50,214
37,261,226
15,95,101
23,115,182
15,119,76
19,71,167
16,75,147
15,56,118
15,93,89
14,69,101
19,72,158
23,84,138
18,98,127
21,92,209
22,106,219
24,82,251
33,193,265
10,29,69
17,82,171
14,57,76
16,40,160
15,94,101
10,52,51
8,23,67
10,31,99
15,78,120
13,61,151
16,109,86
20,90,172
13,53,96
17,102,86
15,65,158
11,67,76
19,148,85
13,36,187
19,111,140
21,82,135
13,61,90
18,70,146
19,70,199
20,108,102
28,130,163
21,86,181
17,87,172
15,98,103
16,81,143
18,61,204
22,63,216
27,172,145
15,75,139
21,116,181
20,89,152
20,107,129
20,75,126
14,78,90
13,71,76
20,108,116
15,70,111
17,60,186
12,65,75
26,118,222
12,63,80
19,53,234
14,88,94
20,82,208
29,145,212
14,61,129
17,66,112
35,154,337
11,34,101
16,78,172
32,178,224
26,122,290
13,73,131
19,91,140
13,37,169
17,73,156
26,121,221
16,62,178
15,76,117
21,122,200
11,34,81
14,49,125
23,76,265
19,73,156
14,75,104
22,115,173
24,151,189
20,101,164
20,97,195
14,43,138
27,90,268
16,84,130
28,121,285
14,95,91
27,168,214
28,133,221
22,110,137
36,185,297
11,75,74
12,51,155
17,53,127
23,108,174
15,49,160
16,48,150
23,84,218
16,45,185
16,61,189
24,88,261
14,56,183
15,57,133
23,91,262
21,94,148
11,59,95
20,81,170
13,53,66
20,103,145
19,91,156
17,79,168
21,99,176
24,92,232
14,45,173
22,138,131
17,88,118
31,167,204
19,80,117
17,86,177
17,64,133
29,158,277
18,84,115
17,91,146
19,61,207
19,122,90
23,80,202
19,61,179
15,56,102
17,91,164
21,109,202
23,104,213
15,72,126
23,121,165
15,53,150
16,67,153
19,84,154
11,44,73
17,55,182
23,106,141
21,95,183
13,80,79
14,49,143
22,69,234
18,108,99
16,70,172
22,96,180
23,106,184
28,150,176
9,26,85
21,99,171
19,86,141
17,69,173
17,76,122
13,79,68
15,55,182
16,53,161
18,67,172
13,51,112
20,81,212
24,36,263
18,87,199
26,127,210
21,94,203
19,83,143
19,61,233
24,131,225
21,95,115
20,65,247
8,22,83
21,128,131
19,99,174
13,57,124
25,117,227
14,63,121
33,170,343
7,28,27
22,92,221
23,99,198
25,155,225
15,50,129
14,57,119
24,128,160
29,104,233
22,101,265
26,161,132
41,197,439
18,96,162
21,102,194
12,45,128
25,131,165
32,163,315
26,125,200
20,73,208
21,78,206
20,102,118
31,112,361
16,60,146
21,78,237
13,51,108
24,157,204
14,51,154
21,85,167
12,45,88
11,41,90
17,111,118
16,65,153
12,40,77
12,35,139
17,70,129
23,104,189
27,120,201
19,105,146
14,39,171
23,120,174
14,61,117
13,66,103
14,51,137
17,65,176
5,24,46
25,101,221
12,58,77
14,52,97
25,118,193
19,71,143
17,92,143
19,58,198
21,106,152
18,62,143
13,53,134
21,94,171
10,45,97
10,52,90
31,163,206
20,87,165
14,45,158
20,82,170
22,107,160
19,121,108
13,62,85
25,105,193
13,34,117
23,113,181
18,80,181
23,141,149
26,131,265
24,87,286
18,80,168
21,89,188
12,35,86
23,162,133
16,83,95
26,150,208
14,62,169
27,148,213
19,74,188
10,34,97
18,92,180
18,124,142
22,109,235
28,112,259
17,64,137
19,85,218
16,64,172
615,1875,13288
28,107,277
23,99,196
22,107,209
29,150,285
25,76,298
22,87,123
10,38,123
29,92,265
16,51,136
31,179,209
19,79,189
16,41,175
21,81,170
12,62,106
17,76,139
30,113,227
15,66,124
23,117,166
21,90,155
16,61,124
17,86,127
21,63,198
22,83,202
19,85,163
15,46,155
13,59,92
7,12,63
17,81,137
25,105,223
18,69,207
19,97,184
21,57,189
21,135,166
18,83,166
15,74,121
27,100,265
15,78,113
22,85,207
13,51,111
20,88,192
12,39,82
17,55,200
12,46,80
31,116,274
17,54,175
23,139,151
27,143,221
20,75,233
21,106,212
21,131,139
22,124,124
27,150,210
36,147,325
18,89,192
28,107,263
18,61,188
16,91,131
8,25,55
20,90,190
25,129,264
12,55,113
26,101,289
21,93,199
34,188,223
23,57,239
22,88,186
29,145,241
16,73,177
15,58,103
30,116,262
20,96,196
15,59,105
29,146,149
31,187,257
18,101,133
23,79,257
24,149,119
28,155,255
17,136,67
11,50,83
21,116,186
11,69,84
19,113,106
33,157,348
21,125,136
17,60,186
11,25,124
27,168,196
25,99,247
19,70,160
15,71,101
21,100,192
17,82,134
20,93,187
15,48,175
20,60,169
16,87,116
13,84,65
10,14,110
22,100,168
17,93,144
25,117,180
21,85,233
21,151,125
18,70,157
22,96,183
32,153,260
19,74,151
19,103,158
22,110,170
30,144,241
14,42,154
22,128,167
18,70,161
17,74,135
14,54,95
21,87,197
18,85,181
14,49,135
11,54,81
23,135,148
8,23,81
22,84,200
22,77,186
21,88,170
11,68,61
32,148,372
26,153,197
19,100,140
14,85,83
13,47,110
27,131,235
10,54,62
20,109,178
30,113,299
22,95,153
17,57,143
25,91,262
17,64,158
17,96,147
29,108,221
20,97,179
17,115,91
13,66,71
25,155,141
19,73,168
13,51,98
15,57,105
22,88,158
21,107,191
22,96,182
16,38,122
20,113,152
24,165,145
26,94,254
16,84,120
15,50,119
17,125,159
18,93,100
27,98,220
18,87,128
24,122,164
22,112,185
20,94,119
21,99,137
13,34,119
27,115,362
17,82,220
25,122,163
16,61,147
23,86,221
20,96,141
22,122,285
19,91,178
20,91,193
25,100,198
21,82,143
23,80,230
28,144,196
22,96,244
26,106,205
14,84,99
19,76,188
25,129,198
14,68,118
13,55,89
22,88,230
12,60,147
15,61,204
27,123,271
26,87,296
25,78,262
12,55,87
32,162,315
21,51,183
23,92,144
14,60,150
28,122,172
7,25,65
26,94,249
19,76,147
29,110,222
19,70,179
22,154,145
25,111,224
27,114,228
25,137,190
24,101,257
14,71,176
17,89,139
24,137,164
16,80,80
13,52,127
24,81,177
17,101,163
12,33,135
26,141,313
25,93,296
25,125,247
19,90,174
32,150,316
18,96,174
22,135,204
33,173,359
