Initialize SIGNATURE TABLE
ST_SET: 1
ST_WAY: 256
ST_TAG_BIT: 16
ST_TAG_MASK: ffff

Initialize PATTERN TABLE
PT_SET: 512
PT_WAY: 4
SIG_DELTA_BIT: 7
C_SIG_BIT: 4
C_DELTA_BIT: 4

Initialize PREFETCH FILTER
FILTER_SET: 1024

*** ChampSim Multicore Out-of-Order Simulator ***

Warmup Instructions: 50000000
Simulation Instructions: 50000000
Number of CPUs: 1
LLC sets: 2048
LLC ways: 16
Off-chip DRAM Size: 4096 MB Channels: 1 Width: 64-bit Data Rate: 3200 MT/s

CPU 0 runs /ChampSim-master-BTBX/dpc3_traces/server_004.champsimtrace.xz
Basic BTB sets: 4096 ways: 4 indirect buffer size: 4096 RAS size: 64
CPU 0 L1D next line prefetcher
Heartbeat CPU 0 instructions: 10000002 cycles: 3225470 heartbeat IPC: 3.10032 cumulative IPC: 3.10032 (Simulation time: 0 hr 0 min 19 sec) 
Heartbeat CPU 0 instructions: 20000002 cycles: 6558130 heartbeat IPC: 3.00061 cumulative IPC: 3.04965 (Simulation time: 0 hr 0 min 38 sec) 
Heartbeat CPU 0 instructions: 30000000 cycles: 11675018 heartbeat IPC: 1.95431 cumulative IPC: 2.56959 (Simulation time: 0 hr 1 min 0 sec) 
Heartbeat CPU 0 instructions: 40000003 cycles: 15420339 heartbeat IPC: 2.67 cumulative IPC: 2.59398 (Simulation time: 0 hr 1 min 19 sec) 
Heartbeat CPU 0 instructions: 50000003 cycles: 18644864 heartbeat IPC: 3.10123 cumulative IPC: 2.6817 (Simulation time: 0 hr 1 min 36 sec) 

Warmup complete CPU 0 instructions: 50000003 cycles: 18644864 (Simulation time: 0 hr 1 min 36 sec) 

Heartbeat CPU 0 instructions: 60000002 cycles: 32412896 heartbeat IPC: 0.72632 cumulative IPC: 0.72632 (Simulation time: 0 hr 1 min 55 sec) 
Heartbeat CPU 0 instructions: 70000002 cycles: 45704155 heartbeat IPC: 0.752374 cumulative IPC: 0.739118 (Simulation time: 0 hr 2 min 13 sec) 
Heartbeat CPU 0 instructions: 80000001 cycles: 72279772 heartbeat IPC: 0.376285 cumulative IPC: 0.559337 (Simulation time: 0 hr 2 min 39 sec) 
Heartbeat CPU 0 instructions: 90000003 cycles: 91478024 heartbeat IPC: 0.520881 cumulative IPC: 0.5492 (Simulation time: 0 hr 3 min 1 sec) 
Heartbeat CPU 0 instructions: 100000002 cycles: 105246690 heartbeat IPC: 0.726287 cumulative IPC: 0.577355 (Simulation time: 0 hr 3 min 19 sec) 
Finished CPU 0 instructions: 50000000 cycles: 86601831 cumulative IPC: 0.577355 (Simulation time: 0 hr 3 min 19 sec) 

ChampSim completed all CPUs

Region of Interest Statistics

CPU 0
XXX cumulative-IPC 0.577355
XXX instructions 50000000
XXX cycles 86601831
L1D TOTAL     ACCESS:   22517928  HIT:   18444934  MISS:    4072994
L1D LOAD      ACCESS:    8986922  HIT:    6975371  MISS:    2011551
L1D RFO       ACCESS:    4735199  HIT:    4628184  MISS:     107015
L1D PREFETCH  ACCESS:    8795807  HIT:    6841379  MISS:    1954428
L1D WRITEBACK ACCESS:          0  HIT:          0  MISS:          0
L1D PREFETCH  REQUESTED:    9020580  ISSUED:    8929950
XXX L1D-USEFUL 114088
XXX L1D-USELESS 1840336
L1D AVERAGE MISS LATENCY: 22.5498 cycles
L1I TOTAL     ACCESS:   14665219  HIT:   13396024  MISS:    1269195
L1I LOAD      ACCESS:   10207564  HIT:    9454203  MISS:     753361
L1I RFO       ACCESS:          0  HIT:          0  MISS:          0
L1I PREFETCH  ACCESS:    4457655  HIT:    3941821  MISS:     515834
L1I WRITEBACK ACCESS:          0  HIT:          0  MISS:          0
L1I PREFETCH  REQUESTED:    5792846  ISSUED:    5792846
XXX L1I-USEFUL 316602
XXX L1I-USELESS 199180
L1I AVERAGE MISS LATENCY: 19.3005 cycles
L2C TOTAL     ACCESS:    6902340  HIT:    5798867  MISS:    1103473
L2C LOAD      ACCESS:    2302645  HIT:    2039905  MISS:     262740
L2C RFO       ACCESS:     105961  HIT:      57585  MISS:      48376
L2C PREFETCH  ACCESS:    4248657  HIT:    3457334  MISS:     791323
L2C WRITEBACK ACCESS:     245077  HIT:     244043  MISS:       1034
L2C PREFETCH  REQUESTED:    5938185  ISSUED:    5938045
XXX L2C-USEFUL 83822
XXX L2C-USELESS 705880
L2C AVERAGE MISS LATENCY: 54.0801 cycles
LLC TOTAL     ACCESS:    2277008  HIT:    2043262  MISS:     233746
LLC LOAD      ACCESS:     262312  HIT:     227507  MISS:      34805
LLC RFO       ACCESS:      48374  HIT:      33531  MISS:      14843
LLC PREFETCH  ACCESS:    1826066  HIT:    1642320  MISS:     183746
LLC WRITEBACK ACCESS:     140256  HIT:     139904  MISS:        352
LLC PREFETCH  REQUESTED:          0  ISSUED:          0
XXX LLC-USEFUL 19031
XXX LLC-USELESS 159417
LLC AVERAGE MISS LATENCY: 163.915 cycles
Major fault: 0 Minor fault: 7596
XXX disp-0 1975820
XXX disp-1 0
XXX disp-2 2308
XXX disp-3 808043
XXX disp-4 2442828
XXX disp-5 624124
XXX disp-6 984039
XXX disp-7 638347
XXX disp-8 431540
XXX disp-9 316564
XXX disp-10 269238
XXX disp-11 117015
XXX disp-12 61041
XXX disp-13 70005
XXX disp-14 89164
XXX disp-15 149342
XXX disp-16 37074
XXX disp-17 58445
XXX disp-18 139468
XXX disp-19 133701
XXX disp-20 234106
XXX disp-21 327529
XXX disp-22 258106
XXX disp-23 151733
XXX disp-24 77818
XXX disp-25 48561
XXX disp-26 19463
XXX disp-27 313
XXX disp-28 15341
XXX disp-29 0
XXX disp-30 0
XXX disp-31 0
XXX disp-32 0
XXX disp-33 0
XXX disp-34 0
XXX disp-35 0
XXX disp-36 0
XXX disp-37 0
XXX disp-38 0
XXX disp-39 0
XXX disp-40 0
XXX disp-41 0
XXX disp-42 0
XXX disp-43 0
XXX disp-44 0
XXX disp-45 0
XXX disp-46 0
XXX disp-47 0
XXX disp-48 0
XXX disp-49 0
XXX disp-50 0
XXX disp-51 0
XXX disp-52 0
XXX disp-53 0
XXX disp-54 0
XXX disp-55 0
XXX disp-56 0
XXX disp-57 0
XXX disp-58 0
XXX disp-59 0
XXX disp-60 0
XXX disp-61 0
XXX disp-62 0
XXX disp-63 11
XXX disp-64 0
XXX disp-65 0
XXX diffBits-0 1975820
XXX diffBits-1 879
XXX diffBits-2 200038
XXX diffBits-3 592129
XXX diffBits-4 759572
XXX diffBits-5 2036763
XXX diffBits-6 883595
XXX diffBits-7 637182
XXX diffBits-8 595030
XXX diffBits-9 408342
XXX diffBits-10 200471
XXX diffBits-11 98930
XXX diffBits-12 193430
XXX diffBits-13 125728
XXX diffBits-14 98705
XXX diffBits-15 117259
XXX diffBits-16 86827
XXX diffBits-17 87958
XXX diffBits-18 83435
XXX diffBits-19 216522
XXX diffBits-20 202221
XXX diffBits-21 95258
XXX diffBits-22 227826
XXX diffBits-23 473478
XXX diffBits-24 0
XXX diffBits-25 68024
XXX diffBits-26 0
XXX diffBits-27 15654
XXX diffBits-28 0
XXX diffBits-29 0
XXX diffBits-30 0
XXX diffBits-31 0
XXX diffBits-32 0
XXX diffBits-33 0
XXX diffBits-34 0
XXX diffBits-35 0
XXX diffBits-36 0
XXX diffBits-37 0
XXX diffBits-38 0
XXX diffBits-39 0
XXX diffBits-40 0
XXX diffBits-41 0
XXX diffBits-42 0
XXX diffBits-43 0
XXX diffBits-44 0
XXX diffBits-45 0
XXX diffBits-46 0
XXX diffBits-47 0
XXX diffBits-48 0
XXX diffBits-49 0
XXX diffBits-50 0
XXX diffBits-51 0
XXX diffBits-52 0
XXX diffBits-53 0
XXX diffBits-54 0
XXX diffBits-55 0
XXX diffBits-56 0
XXX diffBits-57 0
XXX diffBits-58 0
XXX diffBits-59 0
XXX diffBits-60 0
XXX diffBits-61 0
XXX diffBits-62 11
XXX diffBits-63 0
XXX diffBits-64 0
XXX diffBits-65 0
CPU 0 L1D next line prefetcher final stats

DRAM Statistics
 CHANNEL 0
 RQ ROW_BUFFER_HIT:      49383  ROW_BUFFER_MISS:     184009
 DBUS_CONGESTED:      81931
 WQ ROW_BUFFER_HIT:      10471  ROW_BUFFER_MISS:      43180  FULL:          0

 AVG_CONGESTED_CYCLE: 5

CPU 0 Branch Prediction Accuracy: 90.4418% MPKI: 20.2172 Average ROB Occupancy at Mispredict: 49.7768

XXX total_mispredicts 1010862
XXX total_target_mispredicts1 627451
XXX total_target_mispredicts2 190653
XXX total_direction_mispredicts 192758
XXX mispredict_on_btb_hit 385332
XXX NOT_BRANCH: 0
XXX BRANCH_DIRECT_JUMP: 5201
XXX BRANCH_INDIRECT: 25412
XXX BRANCH_CONDITIONAL: 0
XXX BRANCH_DIRECT_CALL: 3204
XXX BRANCH_INDIRECT_CALL: 22344
XXX BRANCH_RETURN: 329171
XXX BRANCH_OTHER: 0
Branch types
NOT_BRANCH: 39423750 78.8475%
BRANCH_DIRECT_JUMP: 551642 1.10328%
BRANCH_INDIRECT: 139368 0.278736%
BRANCH_CONDITIONAL: 7920857 15.8417%
BRANCH_DIRECT_CALL: 776072 1.55214%
BRANCH_INDIRECT_CALL: 194644 0.389288%
BRANCH_RETURN: 993311 1.98662%
BRANCH_OTHER: 0 0%

XXX BTB_reads: 12705041
XXX BTB_writes: 427011
XXX PageBTB_reads: 0
XXX PageBTB_writes: 0
XXX PageBTB_readsBeforeWrite: 0
XXX RegionBTB_reads: 0
XXX RegionBTB_writes: 0
XXX RegionBTB_readsBeforeWrite: 0
XXX BTB_4D_Hits 690319
XXX BTB_6D_Hits 1416129
XXX BTB_8D_Hits 767287
XXX BTB_12D_Hits 264022
XXX BTB_18D_Hits 372436
XXX BTB_25D_Hits 374461
XXX BTB_46D_Hits 6815
XXX BTB_Ret_Hits 955290
XXX BTB_4D_Misses 81038
XXX BTB_6D_Misses 22726
XXX BTB_8D_Misses 55183
XXX BTB_12D_Misses 39746
XXX BTB_18D_Misses 27643
XXX BTB_25D_Misses 71027
XXX BTB_46D_Misses 91627
XXX BTB_Ret_Misses 38021
XXX Num_unique_branches 46469
total instructions: 0
wc,tif,trb
974,6023,13993
1794,9271,18984
1802,11364,14810
1063,8650,6545
859,3663,10684
123,809,1034
2348,11403,20800
491,2580,4670
473,3326,3569
746,5820,7169
649,3745,6771
2939,12529,29032
1260,8016,15554
478,3277,5676
971,4267,15897
582,2944,6340
1257,7773,12966
1036,5409,8201
1715,8260,16434
1190,8325,7812
1293,7538,9625
1370,6640,15607
1407,8990,8741
661,3650,7249
1225,5744,10872
160,948,1482
548,3473,4254
1409,8748,10477
1970,11056,15485
1973,10034,23056
1668,12040,15130
1453,7775,11177
1492,8871,13458
2063,14414,15851
717,4139,9652
2503,16358,12445
1269,6005,17755
997,6735,7097
484,2589,7444
1477,7843,8607
1645,10069,10849
656,3668,8758
1075,7197,10911
581,3183,6581
1489,5512,20443
1266,6926,15124
1783,9753,15659
1075,7941,9865
909,6531,4510
1035,6817,7970
963,7656,4964
1642,8864,11946
781,4918,6841
2525,13482,22536
388,2511,4534
1562,11006,10377
1279,5695,13661
1170,6824,11395
537,1856,10441
1309,6250,13867
1287,6705,11698
2697,14538,28076
2201,11750,22172
1239,3824,19465
1238,7461,14488
1763,12585,11221
2003,10448,18585
1764,11197,10512
315,1644,3449
1091,6251,11674
2298,10724,19112
1258,6325,13705
1235,7807,11503
832,5885,6458
1328,5582,17817
1226,5564,12112
737,3729,11531
204,852,3113
1010,5524,14068
1256,9568,9570
1644,9627,11704
994,4067,13309
2667,13727,20127
1515,9001,12483
3309,21759,17626
1025,5310,11884
1634,8574,14671
2130,10030,22303
1857,8507,21979
2224,10914,21874
2330,12657,21012
1554,6746,22906
2029,15136,8159
1993,11254,20880
3090,16356,44524
1013,6911,8174
1285,6694,16344
1650,10575,10940
1926,11654,18458
1266,6246,19968
1759,11580,11790
1392,5371,18822
769,3366,11948
2658,18577,13467
1595,9332,14487
1835,9676,19940
1041,4304,16749
752,4504,6417
1225,7316,13384
668,4208,4012
1783,9220,18044
1139,7818,7504
1140,7707,8846
2225,14742,15819
816,4751,8614
2326,10110,24751
1403,6432,16603
2376,12454,25238
1366,6601,12403
1499,7162,16077
151,714,1775
940,6616,9811
1365,5865,22669
1880,12276,16604
1138,4317,20418
2149,12550,19079
1444,8175,16633
2202,11858,24729
2022,13301,14441
2223,9568,27927
2174,10982,22728
2353,12974,19963
1648,9308,18366
1546,8512,12292
1866,12204,10210
2714,17226,21901
1644,11952,9466
751,4093,8473
2049,10177,20287
2059,8594,21057
661,3211,6970
1399,4836,14325
1530,7151,14483
1215,6054,13923
1434,7855,15344
734,4282,9512
1078,6169,11698
1830,8972,14520
1932,11088,11243
1248,6945,15217
2011,9159,19203
1508,5476,16248
343,1612,5335
2086,13609,12633
1896,11016,15374
2576,10973,16812
1735,6503,22332
816,3211,13130
2041,9572,24019
1285,7392,10632
2441,12263,22132
1872,9850,14660
1567,7222,15882
924,5469,9389
2226,10791,17604
192,600,2191
2472,12035,22272
983,3963,12353
1758,12077,11106
1214,8350,7594
1415,5415,16551
2911,19573,18711
789,4769,9685
1400,5770,21488
937,4979,10780
1337,7705,11279
1501,7307,14395
1443,7450,13324
1209,4277,18971
1101,5680,12155
1675,6073,12723
583,3220,5592
1747,9465,11106
2104,12363,15956
1737,7728,21557
1294,7532,9332
2315,10506,21410
1615,8110,16557
1852,10731,15354
997,4003,17945
1475,8442,12733
1044,4091,15382
2013,9292,19544
2245,10661,22362
1024,8023,5822
2087,8865,23926
804,3589,12337
1748,8148,17047
1541,6675,15281
898,5898,9405
1736,9282,16934
1786,10846,16095
1355,7361,11028
1760,9936,12709
1702,9625,18854
1548,9741,14383
1084,4821,9459
637,2752,8502
2219,10606,21835
1483,8407,12621
1788,9023,17056
1989,11688,14448
1117,5095,9887
2090,11848,17338
1630,9871,14473
1983,9637,18466
2300,11585,20739
753,3901,12022
3226,14044,36297
2231,10904,23684
845,3791,13906
3535,22200,23132
2228,14019,17405
1782,9740,20758
1873,11915,16246
1651,8057,17510
957,6123,6392
2918,15448,19544
2334,15034,15956
1762,10230,15122
1321,6675,14347
1792,9019,11368
284,1972,2044
1513,8357,15310
1796,8687,24084
3531,16258,36073
1460,8224,13161
2773,13782,28399
1305,7310,12633
1152,6867,12240
699,4434,7469
2348,10837,22878
1020,5083,9839
1629,8629,15130
2623,14721,20202
744,4150,8938
662,3016,8487
1282,7344,11890
884,4845,10429
2037,11277,13620
1977,11304,14966
1454,7057,14688
1546,9939,13673
2297,12737,15377
865,5225,10471
3022,14326,38077
839,4202,8578
2029,14241,9274
2222,13985,13222
1199,7512,9656
1575,8532,14218
503,3126,5094
1770,8674,15873
710,4794,5607
713,4235,6425
2181,12350,13236
1379,7035,13760
1087,5638,10768
1429,5476,17747
1624,8444,11734
1808,8436,19389
1533,6435,13952
1878,11610,14800
1871,9490,14184
668,3013,7647
1195,7103,8840
2048,10949,17330
1996,11078,18783
2906,12863,24979
1518,6411,14409
1611,9435,15664
953,5994,9392
1175,6452,12662
1636,8104,13505
2025,15217,11015
1584,8009,18556
1325,7885,12732
1997,13364,16283
1392,8905,9838
1455,6787,13410
1023,5465,10336
1661,11194,9628
909,3357,12249
1794,8490,16546
942,6595,7330
2124,11041,23226
1311,9930,8206
1471,10716,7338
893,4737,8125
2338,12630,23480
1850,13382,11696
1637,10288,11513
1750,8573,15793
2108,11314,15984
1530,8651,12913
1473,10432,8872
1633,7726,16925
2349,12401,19859
1814,9391,17258
2015,9328,16242
1048,4801,15288
567,1966,9119
1415,8938,8227
1158,4083,18464
1402,10045,11225
1708,8741,21983
3103,14848,26090
930,4009,11385
1437,7065,15626
2054,12991,18595
1434,10214,7781
2540,16366,14404
1678,10640,12695
1896,13793,9996
583,3084,5982
140,579,1737
1076,5802,13865
1280,4335,12619
846,4067,11643
1976,11498,13383
2498,12806,22333
1996,11645,14390
805,5030,6994
1583,7719,18619
960,5706,8113
1865,8590,19856
1005,6455,9019
977,5098,10112
679,3727,7259
1367,6441,15750
1079,3996,11812
2807,15891,21077
1652,9133,13156
1764,8072,13855
577,3258,4735
1503,9899,10323
3048,12485,30843
1387,8306,12093
2175,10395,18978
2551,14603,19433
1346,8901,13833
1600,7867,16666
594,2499,10029
1400,8287,15487
1433,6652,13106
315,1989,3897
1066,5931,9603
925,6556,7102
1564,8635,15601
771,2712,9511
1457,10541,9111
882,5765,9216
1650,7907,16793
1610,9451,10169
600,2922,9792
1159,6891,10056
878,4670,5453
1058,7110,6339
689,4086,7250
2025,10407,14346
950,4968,10488
2897,14478,25555
1911,8797,18617
1463,8514,15048
1324,5443,14313
1752,8316,13540
1852,9212,17184
2298,17188,10901
759,3630,7716
1208,6332,11238
1502,7058,15501
1992,10308,16010
1139,6917,12162
1525,7616,14723
1282,7681,8427
778,4488,5543
936,3895,9946
1568,10405,12895
1429,7209,12334
900,3017,14057
728,3648,9669
997,6117,7873
708,5157,6117
2286,15746,14163
1570,7792,8893
974,4176,11626
1930,12673,15239
1281,6722,11694
2105,9727,26109
1243,7677,10789
860,3765,9071
1652,10358,11696
1948,10821,18024
1742,10128,12882
1538,10277,13482
2447,12177,18662
1958,8712,24415
1343,7557,12308
1121,5571,14177
1104,6124,9537
2078,9293,20845
907,4201,14421
1542,8476,14416
3113,14718,32090
1718,9501,17741
1487,7785,13650
1239,6129,8632
2009,8906,20004
982,5728,8463
1134,7176,11428
902,6052,7369
1081,8695,4121
1450,6829,14179
3007,15464,25990
1892,10189,14069
2707,10646,40086
1282,7146,9922
3147,15062,33689
2285,10756,23215
2656,14668,23052
732,3396,11891
1132,6409,8488
2184,13530,15059
1177,6812,10300
1002,5401,9888
2239,8977,23525
2177,10855,16632
1761,10724,13936
1256,5428,14172
1858,7619,17494
1515,7679,13361
1510,7624,20405
878,6370,6855
3570,20834,22718
961,4031,14193
1146,6687,8936
1717,10410,15199
2234,13155,24175
1580,13756,8851
1695,9848,10848
2362,9683,34182
1806,8696,20365
542,1477,10727
1616,9690,15255
2405,13135,11724
1740,9959,9803
2352,11566,22915
252,1907,2180
606,3847,8630
633,3761,7196
2245,14545,17533
1467,6365,19164
1908,12349,15113
1504,7283,17815
1203,5894,10844
1736,7088,27135
1524,10369,10305
2322,13002,21443
1215,8712,8512
3147,14789,31221
989,3155,12512
979,5397,8709
1258,5381,15782
2032,10956,18676
2353,12010,31307
1203,5397,13647
774,4433,7553
606,3833,5794
1884,8189,25393
1160,5934,11386
2089,11137,16542
809,3264,11699
844,6852,5143
1733,12440,9069
1165,5714,14476
1101,5901,12456
2009,11672,15678
1805,8097,18694
1155,6608,12956
1787,7749,21886
1363,7043,13991
1814,10643,15813
357,1710,5912
2509,10364,28406
393,2524,3101
1961,10517,13857
1567,10071,10346
869,5547,7441
2890,17636,26847
523,4948,3599
1317,6994,14362
457,2211,6708
1399,7123,19126
1620,6056,18755
2166,10598,20737
1345,4939,25388
2460,12711,24568
1374,7220,11134
696,4166,6552
1726,9256,24592
1181,8320,16910
1769,9227,24599
