Initialize SIGNATURE TABLE
ST_SET: 1
ST_WAY: 256
ST_TAG_BIT: 16
ST_TAG_MASK: ffff

Initialize PATTERN TABLE
PT_SET: 512
PT_WAY: 4
SIG_DELTA_BIT: 7
C_SIG_BIT: 4
C_DELTA_BIT: 4

Initialize PREFETCH FILTER
FILTER_SET: 1024

*** ChampSim Multicore Out-of-Order Simulator ***

Warmup Instructions: 50000000
Simulation Instructions: 50000000
Number of CPUs: 1
LLC sets: 2048
LLC ways: 16
Off-chip DRAM Size: 4096 MB Channels: 1 Width: 64-bit Data Rate: 3200 MT/s

CPU 0 runs /ChampSim-master-BTBX/dpc3_traces/server_030.champsimtrace.xz
Basic BTB sets: 4096 ways: 4 indirect buffer size: 4096 RAS size: 64
CPU 0 L1D next line prefetcher
Heartbeat CPU 0 instructions: 10000003 cycles: 3510438 heartbeat IPC: 2.84865 cumulative IPC: 2.84865 (Simulation time: 0 hr 0 min 18 sec) 
Heartbeat CPU 0 instructions: 20000003 cycles: 7020280 heartbeat IPC: 2.84913 cumulative IPC: 2.84889 (Simulation time: 0 hr 0 min 37 sec) 
Heartbeat CPU 0 instructions: 30000000 cycles: 10529201 heartbeat IPC: 2.84988 cumulative IPC: 2.84922 (Simulation time: 0 hr 0 min 56 sec) 
Heartbeat CPU 0 instructions: 40000002 cycles: 14038500 heartbeat IPC: 2.84957 cumulative IPC: 2.84931 (Simulation time: 0 hr 1 min 16 sec) 
Heartbeat CPU 0 instructions: 50000002 cycles: 17550931 heartbeat IPC: 2.84703 cumulative IPC: 2.84885 (Simulation time: 0 hr 1 min 35 sec) 

Warmup complete CPU 0 instructions: 50000002 cycles: 17550931 (Simulation time: 0 hr 1 min 35 sec) 

Heartbeat CPU 0 instructions: 60000000 cycles: 31748487 heartbeat IPC: 0.704346 cumulative IPC: 0.704346 (Simulation time: 0 hr 1 min 54 sec) 
Heartbeat CPU 0 instructions: 70000000 cycles: 45950094 heartbeat IPC: 0.704146 cumulative IPC: 0.704246 (Simulation time: 0 hr 2 min 11 sec) 
Heartbeat CPU 0 instructions: 80000001 cycles: 60107397 heartbeat IPC: 0.706349 cumulative IPC: 0.704946 (Simulation time: 0 hr 2 min 30 sec) 
*** Reached end of trace for Core: 0 Repeating trace: /ChampSim-master-BTBX/dpc3_traces/server_030.champsimtrace.xz
Heartbeat CPU 0 instructions: 90000002 cycles: 74304679 heartbeat IPC: 0.70436 cumulative IPC: 0.704799 (Simulation time: 0 hr 2 min 50 sec) 
Heartbeat CPU 0 instructions: 100000000 cycles: 88448366 heartbeat IPC: 0.707029 cumulative IPC: 0.705244 (Simulation time: 0 hr 3 min 9 sec) 
Finished CPU 0 instructions: 50000002 cycles: 70897436 cumulative IPC: 0.705244 (Simulation time: 0 hr 3 min 9 sec) 

ChampSim completed all CPUs

Region of Interest Statistics

CPU 0
XXX cumulative-IPC 0.705244
XXX instructions 50000002
XXX cycles 70897436
L1D TOTAL     ACCESS:   21985392  HIT:   19905273  MISS:    2080119
L1D LOAD      ACCESS:    8101092  HIT:    7062258  MISS:    1038834
L1D RFO       ACCESS:    6304705  HIT:    6018615  MISS:     286090
L1D PREFETCH  ACCESS:    7579595  HIT:    6824400  MISS:     755195
L1D WRITEBACK ACCESS:          0  HIT:          0  MISS:          0
L1D PREFETCH  REQUESTED:    8151857  ISSUED:    8047613
XXX L1D-USEFUL 195689
XXX L1D-USELESS 559601
L1D AVERAGE MISS LATENCY: 20.279 cycles
L1I TOTAL     ACCESS:   14273889  HIT:   10645747  MISS:    3628142
L1I LOAD      ACCESS:    9366126  HIT:    7439266  MISS:    1926860
L1I RFO       ACCESS:          0  HIT:          0  MISS:          0
L1I PREFETCH  ACCESS:    4907763  HIT:    3206481  MISS:    1701282
L1I WRITEBACK ACCESS:          0  HIT:          0  MISS:          0
L1I PREFETCH  REQUESTED:    7834097  ISSUED:    7834097
XXX L1I-USEFUL 1077267
XXX L1I-USELESS 624020
L1I AVERAGE MISS LATENCY: 13.3097 cycles
L2C TOTAL     ACCESS:    8085982  HIT:    6985967  MISS:    1100015
L2C LOAD      ACCESS:    1824685  HIT:    1515038  MISS:     309647
L2C RFO       ACCESS:     282860  HIT:     211089  MISS:      71771
L2C PREFETCH  ACCESS:    5362752  HIT:    4649213  MISS:     713539
L2C WRITEBACK ACCESS:     615685  HIT:     610627  MISS:       5058
L2C PREFETCH  REQUESTED:    5426884  ISSUED:    5426719
XXX L2C-USEFUL 42812
XXX L2C-USELESS 669584
L2C AVERAGE MISS LATENCY: 33.2218 cycles
LLC TOTAL     ACCESS:    2386486  HIT:    2367579  MISS:      18907
LLC LOAD      ACCESS:     309321  HIT:     306629  MISS:       2692
LLC RFO       ACCESS:      71746  HIT:      69990  MISS:       1756
LLC PREFETCH  ACCESS:    1862766  HIT:    1848372  MISS:      14394
LLC WRITEBACK ACCESS:     142653  HIT:     142588  MISS:         65
LLC PREFETCH  REQUESTED:          0  ISSUED:          0
XXX LLC-USEFUL 940
XXX LLC-USELESS 12055
LLC AVERAGE MISS LATENCY: 143.159 cycles
Major fault: 0 Minor fault: 2047
XXX disp-0 2391101
XXX disp-1 0
XXX disp-2 1690
XXX disp-3 374662
XXX disp-4 1473972
XXX disp-5 1095021
XXX disp-6 1263952
XXX disp-7 731634
XXX disp-8 565835
XXX disp-9 417867
XXX disp-10 270884
XXX disp-11 235485
XXX disp-12 116223
XXX disp-13 158552
XXX disp-14 131411
XXX disp-15 164395
XXX disp-16 85485
XXX disp-17 47749
XXX disp-18 159914
XXX disp-19 102075
XXX disp-20 127504
XXX disp-21 303079
XXX disp-22 174949
XXX disp-23 428212
XXX disp-24 82923
XXX disp-25 0
XXX disp-26 0
XXX disp-27 0
XXX disp-28 0
XXX disp-29 0
XXX disp-30 0
XXX disp-31 0
XXX disp-32 0
XXX disp-33 0
XXX disp-34 0
XXX disp-35 0
XXX disp-36 0
XXX disp-37 0
XXX disp-38 0
XXX disp-39 0
XXX disp-40 0
XXX disp-41 0
XXX disp-42 0
XXX disp-43 0
XXX disp-44 0
XXX disp-45 0
XXX disp-46 243334
XXX disp-47 0
XXX disp-48 0
XXX disp-49 0
XXX disp-50 0
XXX disp-51 0
XXX disp-52 0
XXX disp-53 0
XXX disp-54 0
XXX disp-55 0
XXX disp-56 0
XXX disp-57 0
XXX disp-58 0
XXX disp-59 0
XXX disp-60 0
XXX disp-61 0
XXX disp-62 0
XXX disp-63 0
XXX disp-64 0
XXX disp-65 0
XXX diffBits-0 2391101
XXX diffBits-1 1608
XXX diffBits-2 153072
XXX diffBits-3 598190
XXX diffBits-4 1120125
XXX diffBits-5 1201755
XXX diffBits-6 803304
XXX diffBits-7 641594
XXX diffBits-8 533937
XXX diffBits-9 617398
XXX diffBits-10 288844
XXX diffBits-11 273381
XXX diffBits-12 201516
XXX diffBits-13 173434
XXX diffBits-14 90795
XXX diffBits-15 126845
XXX diffBits-16 142357
XXX diffBits-17 112478
XXX diffBits-18 72198
XXX diffBits-19 154864
XXX diffBits-20 256083
XXX diffBits-21 269902
XXX diffBits-22 486215
XXX diffBits-23 0
XXX diffBits-24 0
XXX diffBits-25 193578
XXX diffBits-26 0
XXX diffBits-27 0
XXX diffBits-28 0
XXX diffBits-29 0
XXX diffBits-30 0
XXX diffBits-31 0
XXX diffBits-32 0
XXX diffBits-33 0
XXX diffBits-34 0
XXX diffBits-35 0
XXX diffBits-36 0
XXX diffBits-37 0
XXX diffBits-38 0
XXX diffBits-39 0
XXX diffBits-40 0
XXX diffBits-41 0
XXX diffBits-42 0
XXX diffBits-43 0
XXX diffBits-44 0
XXX diffBits-45 243334
XXX diffBits-46 0
XXX diffBits-47 0
XXX diffBits-48 0
XXX diffBits-49 0
XXX diffBits-50 0
XXX diffBits-51 0
XXX diffBits-52 0
XXX diffBits-53 0
XXX diffBits-54 0
XXX diffBits-55 0
XXX diffBits-56 0
XXX diffBits-57 0
XXX diffBits-58 0
XXX diffBits-59 0
XXX diffBits-60 0
XXX diffBits-61 0
XXX diffBits-62 0
XXX diffBits-63 0
XXX diffBits-64 0
XXX diffBits-65 0
CPU 0 L1D next line prefetcher final stats

DRAM Statistics
 CHANNEL 0
 RQ ROW_BUFFER_HIT:       6139  ROW_BUFFER_MISS:      12703
 DBUS_CONGESTED:       6377
 WQ ROW_BUFFER_HIT:        149  ROW_BUFFER_MISS:       2233  FULL:          0

 AVG_CONGESTED_CYCLE: 4

CPU 0 Branch Prediction Accuracy: 80.4234% MPKI: 36.6939 Average ROB Occupancy at Mispredict: 38.5167

XXX total_mispredicts 1834693
XXX total_target_mispredicts1 1380399
XXX total_target_mispredicts2 293896
XXX total_direction_mispredicts 160398
XXX mispredict_on_btb_hit 616327
XXX NOT_BRANCH: 0
XXX BRANCH_DIRECT_JUMP: 17325
XXX BRANCH_INDIRECT: 15255
XXX BRANCH_CONDITIONAL: 0
XXX BRANCH_DIRECT_CALL: 17743
XXX BRANCH_INDIRECT_CALL: 14219
XXX BRANCH_RETURN: 551785
XXX BRANCH_OTHER: 0
Branch types
NOT_BRANCH: 40627835 81.2557%
BRANCH_DIRECT_JUMP: 490940 0.98188%
BRANCH_INDIRECT: 175853 0.351706%
BRANCH_CONDITIONAL: 6321392 12.6428%
BRANCH_DIRECT_CALL: 1002066 2.00413%
BRANCH_INDIRECT_CALL: 189782 0.379564%
BRANCH_RETURN: 1191846 2.38369%
BRANCH_OTHER: 0 0%

XXX BTB_reads: 21981678
XXX BTB_writes: 1042233
XXX PageBTB_reads: 0
XXX PageBTB_writes: 0
XXX PageBTB_readsBeforeWrite: 0
XXX RegionBTB_reads: 0
XXX RegionBTB_writes: 0
XXX RegionBTB_readsBeforeWrite: 0
XXX BTB_4D_Hits 900345
XXX BTB_6D_Hits 913259
XXX BTB_8D_Hits 734638
XXX BTB_12D_Hits 308278
XXX BTB_18D_Hits 257046
XXX BTB_25D_Hits 199713
XXX BTB_46D_Hits 71690
XXX BTB_Ret_Hits 1141548
XXX BTB_4D_Misses 33733
XXX BTB_6D_Misses 28581
XXX BTB_8D_Misses 95910
XXX BTB_12D_Misses 128983
XXX BTB_18D_Misses 83751
XXX BTB_25D_Misses 226260
XXX BTB_46D_Misses 394717
XXX BTB_Ret_Misses 50298
XXX Num_unique_branches 9218
total instructions: 0
wc,tif,trb
6550,30390,130658
658,3691,6316
414,2809,6213
1134,10918,14732
250,1150,5016
346,2339,2339
3572,22448,45280
6365,22639,118054
2607,18699,29819
2239,18583,23984
792,6789,7831
8510,51306,130552
13,75,180
1717,8226,32433
179,704,3439
402,2140,5498
4527,42956,56349
161,625,3286
4696,17412,98969
235,1811,2625
853,5950,7841
8,16,64
3823,24252,60708
3517,13191,71166
4844,19930,99950
10616,73787,78103
1672,14207,17877
3219,12894,67427
1938,7590,39685
45,275,785
8135,42390,139435
174,1592,2683
6160,61236,55312
318,1913,3773
3396,17180,66188
323,2852,3763
3458,10663,74757
5022,22459,89013
3433,13585,69516
1022,2461,22985
6,19,48
348,3742,2666
162,557,3373
252,1244,4975
494,2877,6802
1769,15188,10440
492,1850,5094
5076,15508,106654
3675,8546,77251
763,3858,8721
11,39,120
5208,40622,72816
9078,47261,112180
5,16,25
510,3422,4921
5396,28474,98824
3320,20588,60934
12,28,112
2058,8498,29446
6,12,32
119,175,2747
8914,38079,127345
6703,54331,86948
4,3,48
346,1581,5666
8467,46657,68717
3761,15956,70120
380,2615,6001
4624,30470,57166
828,4582,9534
433,2318,7409
4814,43243,63041
3247,13637,66316
2115,7886,37640
1526,5590,32440
271,2586,3678
5166,23385,89223
643,4008,7093
3604,24612,61967
4105,22972,52653
314,2815,4036
286,2247,3974
3933,12659,83682
172,1852,1671
7689,47392,121823
7,16,59
313,1125,5747
13590,54701,171925
6877,60966,77989
465,2813,3962
9423,68390,72232
323,733,6353
3305,12974,68409
329,2096,5077
3464,15844,69558
751,4420,7943
3452,14724,68794
809,5150,5695
5328,30715,90126
759,2337,8924
347,699,6732
6375,41400,94621
3060,4593,71793
13273,100023,77150
163,566,3396
172,748,3446
11233,86798,105367
2114,2462,16726
637,3371,11062
6717,54110,74548
4678,25834,90996
8385,62227,120634
1615,8053,32202
1285,7140,10417
189,1553,2860
184,725,3583
325,1194,5932
9348,77804,81822
351,1295,6176
12747,76967,84369
911,5501,10180
1094,6534,14648
3005,13493,61452
5284,46443,63076
478,2513,7017
336,2801,4479
647,2358,8202
421,2670,5921
6615,33687,129517
281,1986,3863
640,5314,3800
9783,76856,48785
6976,65849,54455
2988,8730,65850
5,13,51
462,3069,8145
161,1096,2835
237,1088,2442
1265,8633,11794
1842,9859,34767
527,3000,8394
441,2120,5833
248,1156,4404
3532,7761,77515
570,3282,6252
4829,28177,77844
171,687,3468
418,2990,3937
1506,9821,10125
3838,21411,65605
9562,55337,131565
14279,86240,142422
6,22,46
498,3980,6404
10,15,65
331,1317,5931
3690,22076,64392
18,93,237
956,4471,15367
567,4489,6260
380,2410,4210
173,750,3479
395,2535,5324
9164,38078,117423
411,1771,5678
11,39,135
1637,12527,28167
253,1490,3997
672,5838,6630
242,785,4239
397,3355,3038
3211,10696,67344
4072,31104,53914
3,5,46
8,37,77
723,6020,4891
3215,8343,71932
162,1169,2761
157,4,3875
6503,40292,99357
68,350,1202
907,5900,13678
5,12,13
163,567,3388
5444,36014,75536
245,2809,2459
165,1489,2288
362,3718,3474
6121,26807,108679
7804,44852,131293
11,20,194
11265,75294,114599
4077,33197,54785
6,7,49
238,1174,3746
587,3017,5020
907,5931,6249
4739,38209,62940
7817,74360,40661
177,1319,2986
175,622,3573
3462,23391,50861
28,295,189
602,4533,6039
414,2387,6475
403,3715,3766
174,346,3856
410,2406,3548
6,4,32
12869,105185,78279
95,453,1808
11,36,139
179,1344,2873
764,3873,7645
1620,4865,35515
2133,17028,24240
8570,82013,50426
90,232,1708
172,1588,2592
146,433,3157
332,2802,3160
7,15,46
172,679,3501
3631,13003,73593
247,824,5269
1922,6511,14244
192,1058,3496
6362,26286,111500
1586,3980,35544
1058,5348,12158
8,21,59
46,175,891
6501,56410,59891
3861,14273,75800
193,1413,3337
4445,21103,79445
2210,1259,49203
3596,37883,46815
475,2871,6295
5457,11877,120054
265,2649,3154
150,436,2387
769,3440,5438
236,2585,2390
9807,62259,89496
6216,43801,69187
8649,47453,104678
175,1079,3149
5347,55778,63743
2419,21844,37543
14,39,183
403,2429,6004
6367,50428,58006
12517,59899,142426
168,899,3202
3093,12409,64736
10102,56068,116354
4006,28979,42370
8,22,58
3222,4918,75518
3223,12879,67594
160,632,3279
389,1994,4081
37,246,402
6222,42132,51971
3511,16034,67209
3,0,21
7638,30037,129231
3756,39615,44015
538,4667,2979
6,17,34
3035,11109,64660
1567,18707,18515
10,10,108
4225,23189,72528
495,2980,5265
3511,12311,73655
683,3604,8737
391,1855,3252
5904,35852,102490
3980,10678,76036
307,2600,1503
360,2607,5256
3222,6440,73996
324,1369,5727
5,10,26
11876,52711,138967
3478,25112,57484
13982,47238,161412
984,6404,5365
3653,23211,63454
85,362,26
96,422,541
2592,20475,29890
1504,8827,15236
241,2444,762
3205,23630,38936
193,1066,3405
621,3664,3929
376,1346,6506
149,808,2821
3223,17615,62840
656,4765,6511
966,6398,5792
3078,8751,67999
6450,56057,56701
171,354,3801
995,4801,15090
9,29,60
41,152,753
707,3339,7032
385,3637,1194
638,3483,9893
633,3412,7323
570,3178,4437
257,1626,4355
6351,29636,110251
5038,41758,66544
7724,38850,136267
1798,9029,34493
9288,72652,87184
416,3271,4258
15533,111116,78978
17293,85249,136605
4948,13276,100775
160,638,3272
8427,88726,43317
331,2663,5236
3041,12158,63747
121,825,1004
16451,100784,157231
4198,26346,64702
6179,35872,98756
2899,24570,39688
5266,33252,64135
3607,9593,79072
6112,46001,89581
384,2108,6560
477,3230,3465
4272,40520,55474
776,2499,12250
7898,53280,122897
11562,77385,84527
615,3259,7462
3695,16659,69797
3214,11265,68883
7531,49148,97124
5284,22987,103711
3559,26409,58960
4071,20771,80884
3317,41243,36732
6948,38726,107544
7,14,57
756,5498,7278
15952,79781,134499
4436,16665,86105
8030,69721,73608
1359,10516,13091
3480,26178,60008
417,2507,4023
3419,29284,49564
162,953,2977
37,97,306
248,666,5428
8098,47084,131825
14999,109096,78168
541,2429,10052
30,343,347
3796,8764,76036
3480,18666,56684
5290,28685,97311
3534,28763,53264
1825,19492,22582
338,2255,4745
860,6376,7711
505,3614,5180
3039,25708,49247
734,4652,7716
7964,50139,101780
3385,19584,62221
10903,69326,109195
364,1845,4704
12171,54601,160716
219,461,4286
831,5380,6713
20,107,133
9,22,138
5517,30179,86179
3404,17396,65211
3452,7537,73779
4528,13632,91222
10409,55769,151567
407,2402,6703
20432,114677,158016
3345,11846,67101
6874,20103,126841
2162,25899,10646
15338,91673,78178
3054,16776,59470
3064,27845,45656
7701,46204,97382
15786,54389,216507
7161,65005,80664
326,2222,1303
3143,14612,62535
5193,20504,106845
324,2907,3704
456,1277,10021
16924,91297,157305
164,571,3409
384,2882,4390
3373,29808,48143
8623,63976,122239
12188,58845,122296
13440,66785,126504
631,2976,6643
520,4511,2525
164,1330,2653
343,2200,2850
7191,34681,105091
5,7,33
746,5157,4310
968,6077,6447
12849,83929,116478
2134,10568,41900
544,6067,3193
3481,30752,52323
3039,18202,57650
9488,54113,92101
7,15,61
7,10,66
10762,78886,96772
446,3019,5621
330,1333,3535
3687,26843,58131
170,837,3313
232,1362,3660
3581,11759,75072
6824,45797,92627
3225,28383,51576
7987,57447,90417
10078,73642,80542
5038,45246,60191
862,4106,10374
13144,71270,154938
9929,51860,170219
2579,14505,49064
9884,36594,133075
239,2173,2986
3606,26184,59996
8969,65713,115959
3946,32724,58062
4751,12736,105891
3509,26506,54618
7,17,44
4950,59275,46262
2982,7875,65256
4558,48973,50761
6738,48568,73365
20617,95606,218240
6639,31790,86209
92,1229,903
4701,31215,71110
5196,11473,113767
18557,110515,145618
9,36,69
4222,12009,93475
2560,3692,48827
11,39,125
602,3669,4330
12,53,127
3058,12221,64154
9880,49335,112279
1691,4936,37219
403,3009,2946
4997,34294,73087
3220,9658,70772
17751,109621,165203
11086,85526,73161
321,1131,6790
7858,41569,135607
7,9,67
2944,27917,45582
19489,119133,109481
7495,37959,106250
171,1329,2867
18,132,174
4392,15550,94185
6,12,52
5077,51819,50055
9505,47690,127785
304,3379,2463
4648,29402,73026
9575,53358,123693
3264,15604,65965
610,4527,8590
3786,29389,59911
17,42,283
279,1002,5753
545,3992,6313
247,969,5110
671,4993,6424
4376,37110,61716
602,4424,9254
8,26,54
320,1716,5499
3633,24699,63522
17,67,194
6631,48456,92849
4178,30144,68905
13675,52252,155314
162,1499,2476
