Initialize SIGNATURE TABLE
ST_SET: 1
ST_WAY: 256
ST_TAG_BIT: 16
ST_TAG_MASK: ffff

Initialize PATTERN TABLE
PT_SET: 512
PT_WAY: 4
SIG_DELTA_BIT: 7
C_SIG_BIT: 4
C_DELTA_BIT: 4

Initialize PREFETCH FILTER
FILTER_SET: 1024

*** ChampSim Multicore Out-of-Order Simulator ***

Warmup Instructions: 50000000
Simulation Instructions: 50000000
Number of CPUs: 1
LLC sets: 2048
LLC ways: 16
Off-chip DRAM Size: 4096 MB Channels: 1 Width: 64-bit Data Rate: 3200 MT/s

CPU 0 runs /ChampSim-master-BTBX/dpc3_traces/server_019.champsimtrace.xz
Basic BTB sets: 4096 ways: 4 indirect buffer size: 4096 RAS size: 64
CPU 0 L1D next line prefetcher
Heartbeat CPU 0 instructions: 10000002 cycles: 3625304 heartbeat IPC: 2.75839 cumulative IPC: 2.75839 (Simulation time: 0 hr 0 min 18 sec) 
Heartbeat CPU 0 instructions: 20000003 cycles: 7252125 heartbeat IPC: 2.75724 cumulative IPC: 2.75781 (Simulation time: 0 hr 0 min 37 sec) 
Heartbeat CPU 0 instructions: 30000002 cycles: 10877785 heartbeat IPC: 2.75812 cumulative IPC: 2.75791 (Simulation time: 0 hr 0 min 56 sec) 
Heartbeat CPU 0 instructions: 40000002 cycles: 14515282 heartbeat IPC: 2.74914 cumulative IPC: 2.75572 (Simulation time: 0 hr 1 min 15 sec) 
Heartbeat CPU 0 instructions: 50000001 cycles: 18141441 heartbeat IPC: 2.75774 cumulative IPC: 2.75612 (Simulation time: 0 hr 1 min 34 sec) 

Warmup complete CPU 0 instructions: 50000001 cycles: 18141441 (Simulation time: 0 hr 1 min 34 sec) 

Heartbeat CPU 0 instructions: 60000000 cycles: 41001122 heartbeat IPC: 0.437451 cumulative IPC: 0.437451 (Simulation time: 0 hr 1 min 58 sec) 
Heartbeat CPU 0 instructions: 70000002 cycles: 67284680 heartbeat IPC: 0.380466 cumulative IPC: 0.406974 (Simulation time: 0 hr 2 min 22 sec) 
Heartbeat CPU 0 instructions: 80000002 cycles: 90852864 heartbeat IPC: 0.424301 cumulative IPC: 0.41259 (Simulation time: 0 hr 2 min 45 sec) 
Heartbeat CPU 0 instructions: 90000000 cycles: 111575187 heartbeat IPC: 0.482571 cumulative IPC: 0.428111 (Simulation time: 0 hr 3 min 8 sec) 
Heartbeat CPU 0 instructions: 100000002 cycles: 132309251 heartbeat IPC: 0.482298 cumulative IPC: 0.437952 (Simulation time: 0 hr 3 min 30 sec) 
Finished CPU 0 instructions: 50000001 cycles: 114167810 cumulative IPC: 0.437952 (Simulation time: 0 hr 3 min 30 sec) 

ChampSim completed all CPUs

Region of Interest Statistics

CPU 0
XXX cumulative-IPC 0.437952
XXX instructions 50000001
XXX cycles 114167810
L1D TOTAL     ACCESS:   19562673  HIT:   17338869  MISS:    2223804
L1D LOAD      ACCESS:    7539813  HIT:    6807751  MISS:     732062
L1D RFO       ACCESS:    5564946  HIT:    4662225  MISS:     902721
L1D PREFETCH  ACCESS:    6457914  HIT:    5868893  MISS:     589021
L1D WRITEBACK ACCESS:          0  HIT:          0  MISS:          0
L1D PREFETCH  REQUESTED:    7582179  ISSUED:    7438059
XXX L1D-USEFUL 219129
XXX L1D-USELESS 369800
L1D AVERAGE MISS LATENCY: 176.643 cycles
L1I TOTAL     ACCESS:   13857619  HIT:   11122570  MISS:    2735049
L1I LOAD      ACCESS:    9995374  HIT:    8419999  MISS:    1575375
L1I RFO       ACCESS:          0  HIT:          0  MISS:          0
L1I PREFETCH  ACCESS:    3862245  HIT:    2702571  MISS:    1159674
L1I WRITEBACK ACCESS:          0  HIT:          0  MISS:          0
L1I PREFETCH  REQUESTED:    6224158  ISSUED:    6224158
XXX L1I-USEFUL 696546
XXX L1I-USELESS 463105
L1I AVERAGE MISS LATENCY: 16.2568 cycles
L2C TOTAL     ACCESS:    7668747  HIT:    5747529  MISS:    1921218
L2C LOAD      ACCESS:    1946674  HIT:    1553417  MISS:     393257
L2C RFO       ACCESS:     902272  HIT:      18157  MISS:     884115
L2C PREFETCH  ACCESS:    3644780  HIT:    3002717  MISS:     642063
L2C WRITEBACK ACCESS:    1175021  HIT:    1173238  MISS:       1783
L2C PREFETCH  REQUESTED:    4477885  ISSUED:    4475249
XXX L2C-USEFUL 36846
XXX L2C-USELESS 604116
L2C AVERAGE MISS LATENCY: 205.557 cycles
LLC TOTAL     ACCESS:    4127675  HIT:    2514653  MISS:    1613022
LLC LOAD      ACCESS:     393163  HIT:     215970  MISS:     177193
LLC RFO       ACCESS:     884084  HIT:     116482  MISS:     767602
LLC PREFETCH  ACCESS:    1738709  HIT:    1072513  MISS:     666196
LLC WRITEBACK ACCESS:    1111719  HIT:    1109688  MISS:       2031
LLC PREFETCH  REQUESTED:          0  ISSUED:          0
XXX LLC-USEFUL 56174
XXX LLC-USELESS 608679
LLC AVERAGE MISS LATENCY: 258.074 cycles
Major fault: 0 Minor fault: 25693
XXX disp-0 1787933
XXX disp-1 0
XXX disp-2 0
XXX disp-3 839498
XXX disp-4 1104598
XXX disp-5 1071515
XXX disp-6 1403088
XXX disp-7 609072
XXX disp-8 576478
XXX disp-9 367400
XXX disp-10 232608
XXX disp-11 203360
XXX disp-12 250140
XXX disp-13 121106
XXX disp-14 123033
XXX disp-15 133356
XXX disp-16 192658
XXX disp-17 67980
XXX disp-18 200415
XXX disp-19 158004
XXX disp-20 95787
XXX disp-21 30835
XXX disp-22 9129
XXX disp-23 188322
XXX disp-24 0
XXX disp-25 0
XXX disp-26 0
XXX disp-27 0
XXX disp-28 0
XXX disp-29 0
XXX disp-30 0
XXX disp-31 0
XXX disp-32 0
XXX disp-33 0
XXX disp-34 0
XXX disp-35 0
XXX disp-36 0
XXX disp-37 0
XXX disp-38 0
XXX disp-39 0
XXX disp-40 0
XXX disp-41 0
XXX disp-42 0
XXX disp-43 0
XXX disp-44 0
XXX disp-45 0
XXX disp-46 96169
XXX disp-47 0
XXX disp-48 0
XXX disp-49 0
XXX disp-50 0
XXX disp-51 0
XXX disp-52 0
XXX disp-53 0
XXX disp-54 0
XXX disp-55 0
XXX disp-56 0
XXX disp-57 0
XXX disp-58 0
XXX disp-59 0
XXX disp-60 0
XXX disp-61 0
XXX disp-62 0
XXX disp-63 0
XXX disp-64 0
XXX disp-65 0
XXX diffBits-0 1787933
XXX diffBits-1 0
XXX diffBits-2 719884
XXX diffBits-3 705410
XXX diffBits-4 437011
XXX diffBits-5 1019837
XXX diffBits-6 778022
XXX diffBits-7 549682
XXX diffBits-8 535104
XXX diffBits-9 968129
XXX diffBits-10 286611
XXX diffBits-11 334228
XXX diffBits-12 101524
XXX diffBits-13 258474
XXX diffBits-14 102332
XXX diffBits-15 134526
XXX diffBits-16 304032
XXX diffBits-17 33458
XXX diffBits-18 110111
XXX diffBits-19 286048
XXX diffBits-20 95720
XXX diffBits-21 29750
XXX diffBits-22 188489
XXX diffBits-23 0
XXX diffBits-24 0
XXX diffBits-25 0
XXX diffBits-26 0
XXX diffBits-27 0
XXX diffBits-28 0
XXX diffBits-29 0
XXX diffBits-30 0
XXX diffBits-31 0
XXX diffBits-32 0
XXX diffBits-33 0
XXX diffBits-34 0
XXX diffBits-35 0
XXX diffBits-36 0
XXX diffBits-37 0
XXX diffBits-38 0
XXX diffBits-39 0
XXX diffBits-40 0
XXX diffBits-41 0
XXX diffBits-42 0
XXX diffBits-43 0
XXX diffBits-44 0
XXX diffBits-45 96169
XXX diffBits-46 0
XXX diffBits-47 0
XXX diffBits-48 0
XXX diffBits-49 0
XXX diffBits-50 0
XXX diffBits-51 0
XXX diffBits-52 0
XXX diffBits-53 0
XXX diffBits-54 0
XXX diffBits-55 0
XXX diffBits-56 0
XXX diffBits-57 0
XXX diffBits-58 0
XXX diffBits-59 0
XXX diffBits-60 0
XXX diffBits-61 0
XXX diffBits-62 0
XXX diffBits-63 0
XXX diffBits-64 0
XXX diffBits-65 0
CPU 0 L1D next line prefetcher final stats

DRAM Statistics
 CHANNEL 0
 RQ ROW_BUFFER_HIT:     420670  ROW_BUFFER_MISS:    1190195
 DBUS_CONGESTED:    1472693
 WQ ROW_BUFFER_HIT:     245218  ROW_BUFFER_MISS:     692309  FULL:          0

 AVG_CONGESTED_CYCLE: 6

CPU 0 Branch Prediction Accuracy: 94.8752% MPKI: 8.67022 Average ROB Occupancy at Mispredict: 79.498

XXX total_mispredicts 433511
XXX total_target_mispredicts1 263591
XXX total_target_mispredicts2 2409
XXX total_direction_mispredicts 167511
XXX mispredict_on_btb_hit 248237
XXX NOT_BRANCH: 0
XXX BRANCH_DIRECT_JUMP: 1817
XXX BRANCH_INDIRECT: 0
XXX BRANCH_CONDITIONAL: 0
XXX BRANCH_DIRECT_CALL: 1494
XXX BRANCH_INDIRECT_CALL: 25322
XXX BRANCH_RETURN: 219604
XXX BRANCH_OTHER: 0
Branch types
NOT_BRANCH: 41540675 83.0813%
BRANCH_DIRECT_JUMP: 462381 0.924762%
BRANCH_INDIRECT: 45460 0.09092%
BRANCH_CONDITIONAL: 6209252 12.4185%
BRANCH_DIRECT_CALL: 666238 1.33248%
BRANCH_INDIRECT_CALL: 204728 0.409456%
BRANCH_RETURN: 870973 1.74195%
BRANCH_OTHER: 0 0%

XXX BTB_reads: 5211955
XXX BTB_writes: 17179
XXX PageBTB_reads: 0
XXX PageBTB_writes: 0
XXX PageBTB_readsBeforeWrite: 0
XXX RegionBTB_reads: 0
XXX RegionBTB_writes: 0
XXX RegionBTB_readsBeforeWrite: 0
XXX BTB_4D_Hits 1056430
XXX BTB_6D_Hits 865623
XXX BTB_8D_Hits 965037
XXX BTB_12D_Hits 525428
XXX BTB_18D_Hits 493010
XXX BTB_25D_Hits 101067
XXX BTB_46D_Hits 36136
XXX BTB_Ret_Hits 870732
XXX BTB_4D_Misses 131
XXX BTB_6D_Misses 98
XXX BTB_8D_Misses 390
XXX BTB_12D_Misses 718
XXX BTB_18D_Misses 786
XXX BTB_25D_Misses 4231
XXX BTB_46D_Misses 10584
XXX BTB_Ret_Misses 241
XXX Num_unique_branches 5688
total instructions: 0
wc,tif,trb
5,11,51
11,51,84
9,34,84
8,17,63
4,8,27
7,12,43
8,31,49
4,10,24
15,81,104
102,281,1877
74,460,934
12,51,209
20,106,262
12,52,120
8,15,65
6,21,48
101,287,1608
6,23,13
6,16,44
7,24,47
12,76,92
5,4,23
8,18,84
6,7,29
9,34,91
7,19,50
14,60,108
4,13,28
7,36,49
20,103,229
29,214,419
6,23,32
8,14,66
9,38,89
6,14,46
9,30,61
7,24,61
5,16,44
6,13,38
10,29,89
11,53,53
296,2068,4430
5,9,22
8,35,45
9,22,89
7,11,44
8,18,90
19,183,86
23,136,305
2178,14429,27930
4,7,23
101,497,685
10,56,68
8,29,82
6,16,35
9,55,69
7,18,57
7,11,69
7,47,59
5,5,34
9,53,38
6,36,35
9,40,103
2,0,7
8,51,29
7,11,62
5,19,48
5,2,37
7,38,23
6,13,63
7,23,70
9,44,91
6,12,54
6,18,18
5,7,51
10,47,53
13,54,174
5,9,26
7,35,41
9,45,128
5,10,49
3,4,26
12,42,106
6,33,31
466,3854,6308
5,23,41
18,109,185
9,24,81
9,34,65
23,177,204
5,8,38
8,25,55
11,54,109
3,16,35
9,43,46
13,76,139
6,16,59
6,8,58
3,5,23
22,61,388
11,43,106
8,32,77
8,41,39
8,28,52
8,43,51
8,26,54
10,50,68
7,30,46
4,10,30
5,6,25
9,44,96
6,21,30
7,20,62
66,378,954
5,9,34
50,379,758
5,12,59
6,19,54
7,16,59
8,42,54
9,26,73
5,16,30
7,27,46
8,39,88
18,66,269
14,133,121
17,49,146
56,446,711
25,159,340
9,53,58
10,66,58
7,16,39
94,729,503
6,9,65
4,4,26
8,21,59
8,37,43
6,25,48
4,6,18
7,27,28
11,55,83
14,101,91
14,41,177
10,51,73
7,24,31
8,16,109
8,56,56
9,38,67
58,373,615
65,596,504
6,23,13
11,67,76
8,61,62
40,116,596
4,2,30
5,6,51
16,92,95
9,45,74
49,182,762
14,132,95
12,70,90
8,26,88
8,51,49
9,23,100
9,29,90
6,11,25
5,18,62
28,132,434
4,11,36
6,12,32
11,83,66
6,14,38
19,106,166
9,50,51
5,7,60
12,51,149
6,8,71
17,134,115
6,16,52
7,33,42
8,54,46
7,27,53
3,7,20
13,24,109
13,35,130
11,60,73
4,8,37
5,7,50
7,24,51
9,28,120
4,6,45
4,9,7
22,120,202
8,17,69
7,40,40
5,23,45
11,59,113
8,26,54
5,14,11
7,14,59
6,18,32
36,180,525
13,79,84
4,21,32
9,18,128
6,11,50
8,26,54
7,30,46
9,34,53
14,103,107
3,3,25
12,93,87
5,17,53
5,11,30
7,11,58
18,113,198
7,21,34
11,33,69
10,34,96
11,39,61
9,57,68
4,12,27
7,34,21
12,65,128
6,13,53
7,18,58
5,8,36
5,9,34
9,24,87
8,41,39
15,68,181
5,9,26
8,33,47
40,199,664
14,117,87
16,103,141
8,16,118
23,126,166
8,36,68
8,26,54
7,27,52
6,24,65
9,26,73
16,62,203
11,65,60
9,59,60
5,16,11
8,22,78
15,67,116
3,2,25
7,20,53
6,18,50
24,205,181
5,5,38
7,28,93
6,14,54
37,222,281
7,24,56
4,5,34
7,12,49
4,15,33
12,33,204
6,6,62
5,9,36
11,50,53
5,10,31
6,8,54
24,124,220
11,37,100
9,29,90
6,19,41
7,27,53
141,974,2086
12,26,122
25,209,204
8,28,56
44,162,695
164,1076,1650
10,36,102
4,29,35
5,27,37
8,27,73
14,65,132
6,13,62
4,6,37
7,25,30
24,129,263
4,9,21
11,45,96
7,17,38
10,30,80
12,37,115
7,30,25
9,47,79
8,22,58
7,25,50
6,27,75
8,66,55
9,41,118
8,35,64
9,37,58
10,31,93
8,30,71
13,104,97
8,25,55
280,1364,4114
3,2,21
11,36,136
7,27,46
4,11,27
11,44,148
6,17,33
9,54,70
6,37,59
8,24,77
15,58,121
6,15,47
4,17,47
6,14,88
5,16,55
3,8,20
9,32,73
8,19,75
12,93,93
7,17,59
3,2,14
9,31,60
7,18,43
10,63,82
5,10,47
12,44,148
11,82,67
7,34,83
5,10,41
241,1634,4069
17,91,160
6,17,47
4,10,45
10,72,52
85,390,1401
7,38,37
98,413,1577
233,2145,3056
7,25,51
5,11,14
6,15,35
13,40,165
10,56,88
58,172,558
8,39,41
8,68,64
9,58,88
6,30,50
3,0,24
12,75,63
8,17,63
27,246,149
15,100,89
6,16,20
12,54,100
5,17,58
6,1,43
24,154,186
2,1,23
11,42,89
14,81,109
8,53,27
8,26,75
7,15,40
557,3636,6720
8,30,71
9,55,50
8,30,50
7,20,49
9,43,48
11,61,96
5,8,32
7,11,65
6,8,40
7,20,49
25,180,175
4,25,39
5,8,56
0,0,0
11,41,139
6,8,28
9,23,112
30,182,427
2,1,15
8,24,56
3,10,49
7,12,61
7,44,69
14,74,97
7,15,40
13,56,203
8,16,96
9,45,60
4,6,29
5,2,42
13,75,106
10,44,92
18,70,264
9,37,68
9,34,101
247,558,2936
10,65,87
4,8,54
9,60,73
10,46,78
8,27,53
9,43,48
19,125,189
14,52,196
19,155,201
7,10,65
7,36,19
10,18,80
13,60,127
6,20,55
6,7,49
5,17,48
9,27,99
99,605,755
2,0,19
3,10,38
7,12,98
3,6,18
14,75,209
8,20,60
8,24,56
7,37,43
9,36,75
66,258,1302
7,9,60
11,37,106
11,26,115
8,17,99
11,58,69
5,7,24
482,3528,6578
18,171,125
6,51,73
5,18,73
24,103,293
3,1,23
7,18,53
6,16,60
7,9,62
8,47,33
143,754,2519
6,17,52
56,286,745
12,85,115
9,40,49
15,75,182
9,60,78
12,41,167
264,2058,4382
510,4670,4280
9,20,128
5,15,50
9,50,95
13,65,111
6,9,55
4,4,21
5,11,33
8,32,56
6,13,63
14,69,150
25,102,297
6,7,45
7,27,81
179,1674,1581
6,9,48
12,36,102
75,583,840
8,36,44
10,49,81
17,67,146
4,7,29
4,3,36
7,22,49
369,3096,4248
6,8,36
7,27,28
20,140,102
5,6,46
9,40,73
445,2779,6490
13,49,140
10,43,87
6,16,51
26,171,121
10,28,127
6,26,59
19,116,177
8,21,79
7,6,69
17,92,159
5,9,26
31,144,407
16,85,145
5,10,45
9,32,82
4,15,45
217,2462,2675
7,18,66
13,82,168
6,37,81
11,61,102
11,44,103
