Initialize SIGNATURE TABLE
ST_SET: 1
ST_WAY: 256
ST_TAG_BIT: 16
ST_TAG_MASK: ffff

Initialize PATTERN TABLE
PT_SET: 512
PT_WAY: 4
SIG_DELTA_BIT: 7
C_SIG_BIT: 4
C_DELTA_BIT: 4

Initialize PREFETCH FILTER
FILTER_SET: 1024

*** ChampSim Multicore Out-of-Order Simulator ***

Warmup Instructions: 50000000
Simulation Instructions: 50000000
Number of CPUs: 1
LLC sets: 2048
LLC ways: 16
Off-chip DRAM Size: 4096 MB Channels: 1 Width: 64-bit Data Rate: 3200 MT/s

CPU 0 runs /ChampSim-master-BTBX/dpc3_traces/server_037.champsimtrace.xz
Basic BTB sets: 4096 ways: 4 indirect buffer size: 4096 RAS size: 64
CPU 0 L1D next line prefetcher
Heartbeat CPU 0 instructions: 10000001 cycles: 3323120 heartbeat IPC: 3.00922 cumulative IPC: 3.00922 (Simulation time: 0 hr 0 min 19 sec) 
Heartbeat CPU 0 instructions: 20000002 cycles: 6643461 heartbeat IPC: 3.01174 cumulative IPC: 3.01048 (Simulation time: 0 hr 0 min 39 sec) 
Heartbeat CPU 0 instructions: 30000003 cycles: 10011668 heartbeat IPC: 2.96894 cumulative IPC: 2.9965 (Simulation time: 0 hr 0 min 58 sec) 
Heartbeat CPU 0 instructions: 40000000 cycles: 13334132 heartbeat IPC: 3.00981 cumulative IPC: 2.99982 (Simulation time: 0 hr 1 min 17 sec) 
Heartbeat CPU 0 instructions: 50000003 cycles: 16655807 heartbeat IPC: 3.01053 cumulative IPC: 3.00196 (Simulation time: 0 hr 1 min 35 sec) 

Warmup complete CPU 0 instructions: 50000003 cycles: 16655807 (Simulation time: 0 hr 1 min 35 sec) 

Heartbeat CPU 0 instructions: 60000001 cycles: 28121806 heartbeat IPC: 0.872144 cumulative IPC: 0.872144 (Simulation time: 0 hr 1 min 52 sec) 
Heartbeat CPU 0 instructions: 70000000 cycles: 39591037 heartbeat IPC: 0.871898 cumulative IPC: 0.872021 (Simulation time: 0 hr 2 min 9 sec) 
Heartbeat CPU 0 instructions: 80000002 cycles: 50978204 heartbeat IPC: 0.878182 cumulative IPC: 0.874065 (Simulation time: 0 hr 2 min 26 sec) 
Heartbeat CPU 0 instructions: 90000002 cycles: 62384145 heartbeat IPC: 0.876736 cumulative IPC: 0.874731 (Simulation time: 0 hr 2 min 45 sec) 
*** Reached end of trace for Core: 0 Repeating trace: /ChampSim-master-BTBX/dpc3_traces/server_037.champsimtrace.xz
Heartbeat CPU 0 instructions: 100000000 cycles: 73781190 heartbeat IPC: 0.87742 cumulative IPC: 0.875268 (Simulation time: 0 hr 3 min 2 sec) 
Finished CPU 0 instructions: 50000001 cycles: 57125384 cumulative IPC: 0.875268 (Simulation time: 0 hr 3 min 2 sec) 

ChampSim completed all CPUs

Region of Interest Statistics

CPU 0
XXX cumulative-IPC 0.875268
XXX instructions 50000001
XXX cycles 57125384
L1D TOTAL     ACCESS:   21135193  HIT:   20157728  MISS:     977465
L1D LOAD      ACCESS:    7511839  HIT:    7025278  MISS:     486561
L1D RFO       ACCESS:    6283907  HIT:    6218112  MISS:      65795
L1D PREFETCH  ACCESS:    7339447  HIT:    6914338  MISS:     425109
L1D WRITEBACK ACCESS:          0  HIT:          0  MISS:          0
L1D PREFETCH  REQUESTED:    7549741  ISSUED:    7449022
XXX L1D-USEFUL 119633
XXX L1D-USELESS 305481
L1D AVERAGE MISS LATENCY: 29.2415 cycles
L1I TOTAL     ACCESS:   14851620  HIT:    9808976  MISS:    5042644
L1I LOAD      ACCESS:    9407747  HIT:    6528379  MISS:    2879368
L1I RFO       ACCESS:          0  HIT:          0  MISS:          0
L1I PREFETCH  ACCESS:    5443873  HIT:    3280597  MISS:    2163276
L1I WRITEBACK ACCESS:          0  HIT:          0  MISS:          0
L1I PREFETCH  REQUESTED:    9766505  ISSUED:    9766505
XXX L1I-USEFUL 1252589
XXX L1I-USELESS 910701
L1I AVERAGE MISS LATENCY: 13.0669 cycles
L2C TOTAL     ACCESS:    9425345  HIT:    9098355  MISS:     326990
L2C LOAD      ACCESS:    3003278  HIT:    2855437  MISS:     147841
L2C RFO       ACCESS:      65628  HIT:      36808  MISS:      28820
L2C PREFETCH  ACCESS:    6066179  HIT:    5916793  MISS:     149386
L2C WRITEBACK ACCESS:     290260  HIT:     289317  MISS:        943
L2C PREFETCH  REQUESTED:    7073263  ISSUED:    7071821
XXX L2C-USEFUL 7965
XXX L2C-USELESS 141239
L2C AVERAGE MISS LATENCY: 44.9699 cycles
LLC TOTAL     ACCESS:    1555776  HIT:    1501090  MISS:      54686
LLC LOAD      ACCESS:     147825  HIT:     135218  MISS:      12607
LLC RFO       ACCESS:      28819  HIT:      24013  MISS:       4806
LLC PREFETCH  ACCESS:    1230065  HIT:    1193229  MISS:      36836
LLC WRITEBACK ACCESS:     149067  HIT:     148630  MISS:        437
LLC PREFETCH  REQUESTED:          0  ISSUED:          0
XXX LLC-USEFUL 3464
XXX LLC-USELESS 31183
LLC AVERAGE MISS LATENCY: 162.304 cycles
Major fault: 0 Minor fault: 5655
XXX disp-0 2477441
XXX disp-1 0
XXX disp-2 0
XXX disp-3 306424
XXX disp-4 946725
XXX disp-5 714982
XXX disp-6 1073631
XXX disp-7 701290
XXX disp-8 757754
XXX disp-9 487878
XXX disp-10 317326
XXX disp-11 274647
XXX disp-12 142109
XXX disp-13 144927
XXX disp-14 172139
XXX disp-15 184378
XXX disp-16 231766
XXX disp-17 96360
XXX disp-18 290338
XXX disp-19 165486
XXX disp-20 152872
XXX disp-21 76010
XXX disp-22 20022
XXX disp-23 339188
XXX disp-24 0
XXX disp-25 0
XXX disp-26 0
XXX disp-27 0
XXX disp-28 0
XXX disp-29 0
XXX disp-30 0
XXX disp-31 0
XXX disp-32 0
XXX disp-33 0
XXX disp-34 0
XXX disp-35 0
XXX disp-36 0
XXX disp-37 0
XXX disp-38 0
XXX disp-39 0
XXX disp-40 0
XXX disp-41 0
XXX disp-42 0
XXX disp-43 0
XXX disp-44 0
XXX disp-45 0
XXX disp-46 118828
XXX disp-47 0
XXX disp-48 0
XXX disp-49 0
XXX disp-50 0
XXX disp-51 0
XXX disp-52 0
XXX disp-53 0
XXX disp-54 0
XXX disp-55 0
XXX disp-56 0
XXX disp-57 0
XXX disp-58 0
XXX disp-59 0
XXX disp-60 0
XXX disp-61 0
XXX disp-62 0
XXX disp-63 0
XXX disp-64 0
XXX disp-65 0
XXX diffBits-0 2477441
XXX diffBits-1 0
XXX diffBits-2 78194
XXX diffBits-3 445412
XXX diffBits-4 605747
XXX diffBits-5 625399
XXX diffBits-6 969010
XXX diffBits-7 751130
XXX diffBits-8 654224
XXX diffBits-9 545610
XXX diffBits-10 389637
XXX diffBits-11 411753
XXX diffBits-12 144702
XXX diffBits-13 141759
XXX diffBits-14 148512
XXX diffBits-15 188621
XXX diffBits-16 363916
XXX diffBits-17 47183
XXX diffBits-18 171795
XXX diffBits-19 345171
XXX diffBits-20 177135
XXX diffBits-21 44828
XXX diffBits-22 346514
XXX diffBits-23 0
XXX diffBits-24 0
XXX diffBits-25 0
XXX diffBits-26 0
XXX diffBits-27 0
XXX diffBits-28 0
XXX diffBits-29 0
XXX diffBits-30 0
XXX diffBits-31 0
XXX diffBits-32 0
XXX diffBits-33 0
XXX diffBits-34 0
XXX diffBits-35 0
XXX diffBits-36 0
XXX diffBits-37 0
XXX diffBits-38 0
XXX diffBits-39 0
XXX diffBits-40 0
XXX diffBits-41 0
XXX diffBits-42 0
XXX diffBits-43 0
XXX diffBits-44 0
XXX diffBits-45 118828
XXX diffBits-46 0
XXX diffBits-47 0
XXX diffBits-48 0
XXX diffBits-49 0
XXX diffBits-50 0
XXX diffBits-51 0
XXX diffBits-52 0
XXX diffBits-53 0
XXX diffBits-54 0
XXX diffBits-55 0
XXX diffBits-56 0
XXX diffBits-57 0
XXX diffBits-58 0
XXX diffBits-59 0
XXX diffBits-60 0
XXX diffBits-61 0
XXX diffBits-62 0
XXX diffBits-63 0
XXX diffBits-64 0
XXX diffBits-65 0
CPU 0 L1D next line prefetcher final stats

DRAM Statistics
 CHANNEL 0
 RQ ROW_BUFFER_HIT:       9584  ROW_BUFFER_MISS:      44660
 DBUS_CONGESTED:      21890
 WQ ROW_BUFFER_HIT:       1247  ROW_BUFFER_MISS:      11230  FULL:          0

 AVG_CONGESTED_CYCLE: 5

CPU 0 Branch Prediction Accuracy: 92.4793% MPKI: 13.5345 Average ROB Occupancy at Mispredict: 41.0495

XXX total_mispredicts 676726
XXX total_target_mispredicts1 481702
XXX total_target_mispredicts2 9037
XXX total_direction_mispredicts 185987
XXX mispredict_on_btb_hit 431451
XXX NOT_BRANCH: 0
XXX BRANCH_DIRECT_JUMP: 1913
XXX BRANCH_INDIRECT: 0
XXX BRANCH_CONDITIONAL: 0
XXX BRANCH_DIRECT_CALL: 786
XXX BRANCH_INDIRECT_CALL: 45301
XXX BRANCH_RETURN: 383451
XXX BRANCH_OTHER: 0
Branch types
NOT_BRANCH: 41001439 82.0029%
BRANCH_DIRECT_JUMP: 541938 1.08388%
BRANCH_INDIRECT: 59716 0.119432%
BRANCH_CONDITIONAL: 5916825 11.8336%
BRANCH_DIRECT_CALL: 1005455 2.01091%
BRANCH_INDIRECT_CALL: 234433 0.468866%
BRANCH_RETURN: 1239857 2.47971%
BRANCH_OTHER: 0 0%

XXX BTB_reads: 8127511
XXX BTB_writes: 55293
XXX PageBTB_reads: 0
XXX PageBTB_writes: 0
XXX PageBTB_readsBeforeWrite: 0
XXX RegionBTB_reads: 0
XXX RegionBTB_writes: 0
XXX RegionBTB_readsBeforeWrite: 0
XXX BTB_4D_Hits 553697
XXX BTB_6D_Hits 796981
XXX BTB_8D_Hits 969839
XXX BTB_12D_Hits 541931
XXX BTB_18D_Hits 703152
XXX BTB_25D_Hits 193616
XXX BTB_46D_Hits 37279
XXX BTB_Ret_Hits 1239587
XXX BTB_4D_Misses 93
XXX BTB_6D_Misses 121
XXX BTB_8D_Misses 233
XXX BTB_12D_Misses 7329
XXX BTB_18D_Misses 1065
XXX BTB_25D_Misses 18243
XXX BTB_46D_Misses 27939
XXX BTB_Ret_Misses 270
XXX Num_unique_branches 5254
total instructions: 0
wc,tif,trb
4,10,45
10,54,70
7,33,47
5,11,33
4,8,27
6,3,33
9,45,44
4,10,24
12,63,87
12,37,157
361,5361,3168
8,29,131
10,54,94
9,47,86
8,9,71
4,4,31
6,16,50
3,2,7
5,10,43
5,10,29
15,124,127
2,0,5
8,18,82
3,3,13
9,31,94
5,9,47
8,42,38
2,1,15
9,54,67
13,65,169
7,25,130
4,9,22
6,3,43
8,44,78
5,16,39
8,32,64
7,26,59
4,9,26
5,9,33
8,19,61
8,42,38
519,3457,7950
5,9,22
6,18,26
6,9,41
7,11,44
8,40,68
13,76,83
15,76,192
2077,12441,26991
3,2,16
9,43,87
17,139,104
7,28,72
3,2,25
9,48,76
6,7,37
5,6,54
63,710,810
5,5,38
5,8,27
7,36,40
5,13,51
2,0,7
6,16,20
7,12,64
4,19,43
4,0,34
6,20,16
4,7,35
8,32,64
6,21,57
6,2,44
3,3,13
5,7,51
7,16,39
10,27,126
4,9,23
7,35,41
369,2613,6268
5,11,68
3,4,26
18,84,162
6,32,32
719,4716,11143
7,39,69
6,6,44
11,40,117
7,20,49
8,36,71
4,3,32
8,25,55
8,23,91
3,5,21
10,38,64
327,3532,4521
3,3,28
4,2,28
4,5,30
8,22,107
6,8,42
6,26,55
5,10,15
12,79,69
6,27,44
6,8,42
7,22,53
3,2,10
2,5,19
4,2,25
10,35,109
5,7,25
4,6,21
10,30,66
5,9,34
8,19,86
4,12,52
3,4,14
4,12,43
7,25,60
9,26,73
4,5,22
7,15,40
8,29,86
712,3197,14484
4,6,40
13,50,119
615,5300,8172
13,71,118
9,41,54
7,17,38
6,3,33
8,58,22
8,15,123
4,4,26
3,11,18
6,21,39
5,25,44
4,6,18
6,18,32
11,47,93
6,13,37
7,7,69
6,14,30
6,23,27
8,18,99
3,12,20
9,53,77
8,28,52
8,43,62
4,9,9
10,66,64
9,70,77
5,19,52
2,1,13
3,4,37
16,92,108
7,36,76
13,32,128
7,67,54
8,29,51
6,8,56
3,9,26
8,13,91
6,15,45
6,11,25
4,25,69
2,1,10
4,5,41
5,8,27
10,64,60
4,7,33
13,58,114
10,58,68
5,7,60
4,17,32
5,8,71
12,78,88
5,13,28
7,33,42
6,36,28
4,6,29
2,3,13
5,9,34
11,42,113
8,26,54
4,8,37
5,7,50
5,8,37
2,10,34
4,6,45
4,4,16
10,72,58
8,22,74
6,22,33
3,11,28
11,55,133
5,6,33
5,14,11
6,9,45
8,27,51
11,51,127
10,65,45
4,7,31
7,13,101
6,11,50
6,19,45
5,28,36
10,54,56
11,64,65
3,3,25
11,63,128
4,14,37
6,13,43
4,3,31
12,78,135
7,21,34
8,26,54
7,24,69
6,10,40
5,12,40
3,2,18
5,10,21
10,33,114
5,7,40
6,18,53
5,8,36
5,5,20
151,592,3069
8,33,47
9,35,103
5,9,26
7,28,43
351,1566,7106
15,90,99
18,147,141
7,9,100
15,55,64
11,52,97
6,16,28
5,21,20
3,7,48
5,12,45
4,4,39
10,68,42
7,37,38
5,16,11
8,30,88
17,118,133
1,1,10
9,44,73
4,17,47
17,119,118
3,4,35
5,23,62
7,19,54
11,44,65
7,24,56
4,14,39
5,7,29
4,15,33
696,2479,14878
5,6,62
7,14,55
11,43,66
4,6,31
3,7,41
18,77,169
10,38,92
5,6,31
6,19,41
5,10,40
11,59,141
9,20,85
10,64,66
11,56,89
306,1221,6402
6,13,55
7,9,60
2,2,18
4,11,28
5,19,51
10,48,91
6,13,62
5,9,43
7,25,30
15,133,98
5,15,20
12,34,118
8,38,42
9,26,87
11,63,62
5,3,26
8,29,72
5,4,35
5,11,28
4,24,40
5,13,33
24,157,239
7,19,61
8,31,49
12,33,114
9,41,85
7,32,43
5,5,41
62,336,517
3,2,21
5,20,48
3,3,6
5,7,36
8,27,110
4,0,16
7,26,54
4,9,37
5,12,46
6,18,53
7,17,56
5,17,52
5,11,66
4,12,48
1,7,12
6,14,46
6,16,44
6,12,36
348,1200,5401
3,4,24
5,5,40
5,10,31
10,74,71
5,7,50
557,3683,8496
7,37,38
7,29,82
4,2,30
7,20,73
6,17,34
3,3,29
4,9,46
9,55,50
8,25,85
5,6,25
358,3193,3555
15,85,158
6,6,45
4,10,8
5,11,20
7,10,61
7,19,56
5,15,56
5,10,29
8,52,64
8,33,88
4,30,39
1,0,0
8,49,31
5,6,35
475,4610,2622
19,114,151
4,3,13
4,6,26
4,12,44
4,0,33
53,233,484
2,1,23
13,78,95
7,19,56
7,21,48
7,26,87
6,16,40
6265,106401,50137
6,13,58
6,20,42
7,23,50
7,29,44
12,74,54
14,106,142
4,6,27
4,7,32
7,17,56
6,17,43
884,7018,7061
3,10,29
8,37,82
0,0,0
5,18,51
4,8,16
540,2858,10536
5,24,44
2,1,15
8,18,62
2,5,29
7,12,61
4,9,35
21,153,166
7,15,40
10,30,152
7,5,64
8,36,44
2,6,13
3,2,28
25,192,195
12,40,118
10,38,114
7,16,53
19,52,303
319,1321,4255
8,43,65
3,8,47
23,176,201
9,37,86
6,11,53
7,19,36
223,2574,2875
7,18,103
9,41,93
5,6,33
6,17,19
6,15,53
11,50,104
5,19,47
5,7,45
4,11,29
9,29,97
10,68,67
3,0,24
3,10,38
6,12,79
3,19,30
28,292,342
7,14,55
5,12,31
7,37,43
11,47,76
5,16,37
8,7,73
10,39,79
10,25,105
7,24,93
9,39,52
4,7,17
16738,129477,238183
7,24,31
3,20,35
3,10,41
1106,7848,16086
2,1,18
5,8,33
7,34,67
10,32,108
8,43,37
12,57,63
5,7,37
11,40,95
6,33,57
15,88,101
7,26,49
7,25,69
6,12,43
100,292,2054
11,99,35
6,7,78
5,14,37
5,6,45
8,58,57
5,9,55
5,10,26
4,8,27
6,21,39
4,4,42
6,16,60
21,78,228
7,16,75
4,15,45
6,16,66
8,30,65
10,66,70
14,97,143
7,23,46
10,42,82
8,34,46
3,3,29
2,2,17
7,22,49
14,78,99
5,5,34
6,13,23
10,41,89
2,3,22
4,18,30
8,39,73
11,45,88
8,39,75
3,1,34
10,48,60
10,19,115
6,26,59
9,44,77
8,25,75
9,22,91
21,119,202
4,9,26
16,72,116
16,94,142
3,5,6
8,38,73
4,15,45
10,59,87
5,13,55
1030,7888,14743
7,40,89
5,22,49
8,30,70
