Initialize SIGNATURE TABLE
ST_SET: 1
ST_WAY: 256
ST_TAG_BIT: 16
ST_TAG_MASK: ffff

Initialize PATTERN TABLE
PT_SET: 512
PT_WAY: 4
SIG_DELTA_BIT: 7
C_SIG_BIT: 4
C_DELTA_BIT: 4

Initialize PREFETCH FILTER
FILTER_SET: 1024

*** ChampSim Multicore Out-of-Order Simulator ***

Warmup Instructions: 50000000
Simulation Instructions: 50000000
Number of CPUs: 1
LLC sets: 2048
LLC ways: 16
Off-chip DRAM Size: 4096 MB Channels: 1 Width: 64-bit Data Rate: 3200 MT/s

CPU 0 runs /ChampSim-master-BTBX/dpc3_traces/server_012.champsimtrace.xz
Basic BTB sets: 4096 ways: 4 indirect buffer size: 4096 RAS size: 64
CPU 0 L1D next line prefetcher
Heartbeat CPU 0 instructions: 10000002 cycles: 3192157 heartbeat IPC: 3.13268 cumulative IPC: 3.13268 (Simulation time: 0 hr 0 min 19 sec) 
Heartbeat CPU 0 instructions: 20000002 cycles: 6387330 heartbeat IPC: 3.12972 cumulative IPC: 3.1312 (Simulation time: 0 hr 0 min 37 sec) 
Heartbeat CPU 0 instructions: 30000001 cycles: 9583170 heartbeat IPC: 3.12907 cumulative IPC: 3.13049 (Simulation time: 0 hr 0 min 56 sec) 
Heartbeat CPU 0 instructions: 40000000 cycles: 12784741 heartbeat IPC: 3.12347 cumulative IPC: 3.12873 (Simulation time: 0 hr 1 min 14 sec) 
Heartbeat CPU 0 instructions: 50000003 cycles: 15979286 heartbeat IPC: 3.13034 cumulative IPC: 3.12905 (Simulation time: 0 hr 1 min 33 sec) 

Warmup complete CPU 0 instructions: 50000003 cycles: 15979286 (Simulation time: 0 hr 1 min 33 sec) 

Heartbeat CPU 0 instructions: 60000001 cycles: 27831780 heartbeat IPC: 0.843704 cumulative IPC: 0.843704 (Simulation time: 0 hr 1 min 51 sec) 
Heartbeat CPU 0 instructions: 70000000 cycles: 39708805 heartbeat IPC: 0.841962 cumulative IPC: 0.842832 (Simulation time: 0 hr 2 min 10 sec) 
Heartbeat CPU 0 instructions: 80000002 cycles: 51766444 heartbeat IPC: 0.82935 cumulative IPC: 0.838289 (Simulation time: 0 hr 2 min 29 sec) 
Heartbeat CPU 0 instructions: 90000000 cycles: 63942657 heartbeat IPC: 0.821273 cumulative IPC: 0.83397 (Simulation time: 0 hr 2 min 47 sec) 
Heartbeat CPU 0 instructions: 100000002 cycles: 76008904 heartbeat IPC: 0.828758 cumulative IPC: 0.832922 (Simulation time: 0 hr 3 min 5 sec) 
Finished CPU 0 instructions: 50000001 cycles: 60029619 cumulative IPC: 0.832922 (Simulation time: 0 hr 3 min 5 sec) 

ChampSim completed all CPUs

Region of Interest Statistics

CPU 0
XXX cumulative-IPC 0.832922
XXX instructions 50000001
XXX cycles 60029619
L1D TOTAL     ACCESS:   18464095  HIT:   17419738  MISS:    1044357
L1D LOAD      ACCESS:    6815365  HIT:    6339861  MISS:     475504
L1D RFO       ACCESS:    5053884  HIT:    4971393  MISS:      82491
L1D PREFETCH  ACCESS:    6594846  HIT:    6108484  MISS:     486362
L1D WRITEBACK ACCESS:          0  HIT:          0  MISS:          0
L1D PREFETCH  REQUESTED:    6854133  ISSUED:    6751170
XXX L1D-USEFUL 145105
XXX L1D-USELESS 341278
L1D AVERAGE MISS LATENCY: 38.9715 cycles
L1I TOTAL     ACCESS:   13399162  HIT:   11812915  MISS:    1586247
L1I LOAD      ACCESS:    8616970  HIT:    7641943  MISS:     975027
L1I RFO       ACCESS:          0  HIT:          0  MISS:          0
L1I PREFETCH  ACCESS:    4782192  HIT:    4170972  MISS:     611220
L1I WRITEBACK ACCESS:          0  HIT:          0  MISS:          0
L1I PREFETCH  REQUESTED:    6565700  ISSUED:    6565700
XXX L1I-USEFUL 378466
XXX L1I-USELESS 232764
L1I AVERAGE MISS LATENCY: 17.1655 cycles
L2C TOTAL     ACCESS:    3503054  HIT:    2166771  MISS:    1336283
L2C LOAD      ACCESS:     856476  HIT:     544566  MISS:     311910
L2C RFO       ACCESS:      81440  HIT:      31884  MISS:      49556
L2C PREFETCH  ACCESS:    2289522  HIT:    1316235  MISS:     973287
L2C WRITEBACK ACCESS:     275616  HIT:     274086  MISS:       1530
L2C PREFETCH  REQUESTED:    2664790  ISSUED:    2664634
XXX L2C-USEFUL 102149
XXX L2C-USELESS 869365
L2C AVERAGE MISS LATENCY: 42.8662 cycles
LLC TOTAL     ACCESS:    2389825  HIT:    2231827  MISS:     157998
LLC LOAD      ACCESS:     311780  HIT:     292880  MISS:      18900
LLC RFO       ACCESS:      49554  HIT:      39929  MISS:       9625
LLC PREFETCH  ACCESS:    1859952  HIT:    1730819  MISS:     129133
LLC WRITEBACK ACCESS:     168539  HIT:     168199  MISS:        340
LLC PREFETCH  REQUESTED:          0  ISSUED:          0
XXX LLC-USEFUL 13605
XXX LLC-USELESS 113891
LLC AVERAGE MISS LATENCY: 162.822 cycles
Major fault: 0 Minor fault: 5602
XXX disp-0 1755151
XXX disp-1 0
XXX disp-2 437
XXX disp-3 1028180
XXX disp-4 823834
XXX disp-5 605216
XXX disp-6 589071
XXX disp-7 627165
XXX disp-8 383055
XXX disp-9 242090
XXX disp-10 222626
XXX disp-11 134373
XXX disp-12 76647
XXX disp-13 53548
XXX disp-14 55694
XXX disp-15 90480
XXX disp-16 45495
XXX disp-17 73884
XXX disp-18 151548
XXX disp-19 117102
XXX disp-20 266610
XXX disp-21 225496
XXX disp-22 184647
XXX disp-23 150483
XXX disp-24 50750
XXX disp-25 82881
XXX disp-26 32966
XXX disp-27 508
XXX disp-28 26254
XXX disp-29 0
XXX disp-30 0
XXX disp-31 0
XXX disp-32 0
XXX disp-33 0
XXX disp-34 0
XXX disp-35 0
XXX disp-36 0
XXX disp-37 0
XXX disp-38 0
XXX disp-39 0
XXX disp-40 0
XXX disp-41 0
XXX disp-42 0
XXX disp-43 0
XXX disp-44 0
XXX disp-45 0
XXX disp-46 0
XXX disp-47 0
XXX disp-48 0
XXX disp-49 0
XXX disp-50 0
XXX disp-51 0
XXX disp-52 0
XXX disp-53 0
XXX disp-54 0
XXX disp-55 0
XXX disp-56 0
XXX disp-57 0
XXX disp-58 0
XXX disp-59 0
XXX disp-60 0
XXX disp-61 0
XXX disp-62 0
XXX disp-63 21
XXX disp-64 0
XXX disp-65 0
XXX diffBits-0 1755151
XXX diffBits-1 106
XXX diffBits-2 268452
XXX diffBits-3 594159
XXX diffBits-4 726048
XXX diffBits-5 703990
XXX diffBits-6 531471
XXX diffBits-7 580933
XXX diffBits-8 350756
XXX diffBits-9 456050
XXX diffBits-10 161193
XXX diffBits-11 115716
XXX diffBits-12 151529
XXX diffBits-13 112807
XXX diffBits-14 38148
XXX diffBits-15 65895
XXX diffBits-16 113815
XXX diffBits-17 90502
XXX diffBits-18 97960
XXX diffBits-19 225027
XXX diffBits-20 252219
XXX diffBits-21 144906
XXX diffBits-22 226963
XXX diffBits-23 189786
XXX diffBits-24 0
XXX diffBits-25 115847
XXX diffBits-26 0
XXX diffBits-27 26762
XXX diffBits-28 0
XXX diffBits-29 0
XXX diffBits-30 0
XXX diffBits-31 0
XXX diffBits-32 0
XXX diffBits-33 0
XXX diffBits-34 0
XXX diffBits-35 0
XXX diffBits-36 0
XXX diffBits-37 0
XXX diffBits-38 0
XXX diffBits-39 0
XXX diffBits-40 0
XXX diffBits-41 0
XXX diffBits-42 0
XXX diffBits-43 0
XXX diffBits-44 0
XXX diffBits-45 0
XXX diffBits-46 0
XXX diffBits-47 0
XXX diffBits-48 0
XXX diffBits-49 0
XXX diffBits-50 0
XXX diffBits-51 0
XXX diffBits-52 0
XXX diffBits-53 0
XXX diffBits-54 0
XXX diffBits-55 0
XXX diffBits-56 0
XXX diffBits-57 0
XXX diffBits-58 0
XXX diffBits-59 0
XXX diffBits-60 0
XXX diffBits-61 0
XXX diffBits-62 21
XXX diffBits-63 0
XXX diffBits-64 0
XXX diffBits-65 0
CPU 0 L1D next line prefetcher final stats

DRAM Statistics
 CHANNEL 0
 RQ ROW_BUFFER_HIT:      25283  ROW_BUFFER_MISS:     132371
 DBUS_CONGESTED:      54861
 WQ ROW_BUFFER_HIT:      10257  ROW_BUFFER_MISS:      49106  FULL:          0

 AVG_CONGESTED_CYCLE: 5

CPU 0 Branch Prediction Accuracy: 90.0105% MPKI: 18.5778 Average ROB Occupancy at Mispredict: 46.9387

XXX total_mispredicts 928891
XXX total_target_mispredicts1 581513
XXX total_target_mispredicts2 233591
XXX total_direction_mispredicts 113787
XXX mispredict_on_btb_hit 320862
XXX NOT_BRANCH: 0
XXX BRANCH_DIRECT_JUMP: 5842
XXX BRANCH_INDIRECT: 23446
XXX BRANCH_CONDITIONAL: 0
XXX BRANCH_DIRECT_CALL: 3940
XXX BRANCH_INDIRECT_CALL: 4618
XXX BRANCH_RETURN: 283016
XXX BRANCH_OTHER: 0
Branch types
NOT_BRANCH: 40700943 81.4019%
BRANCH_DIRECT_JUMP: 469808 0.939616%
BRANCH_INDIRECT: 153732 0.307464%
BRANCH_CONDITIONAL: 6944056 13.8881%
BRANCH_DIRECT_CALL: 679877 1.35975%
BRANCH_INDIRECT_CALL: 168745 0.33749%
BRANCH_RETURN: 882491 1.76498%
BRANCH_OTHER: 0 0%

XXX BTB_reads: 11228250
XXX BTB_writes: 487396
XXX PageBTB_reads: 0
XXX PageBTB_writes: 0
XXX PageBTB_readsBeforeWrite: 0
XXX RegionBTB_reads: 0
XXX RegionBTB_writes: 0
XXX RegionBTB_readsBeforeWrite: 0
XXX BTB_4D_Hits 690521
XXX BTB_6D_Hits 564414
XXX BTB_8D_Hits 622366
XXX BTB_12D_Hits 216747
XXX BTB_18D_Hits 357801
XXX BTB_25D_Hits 274854
XXX BTB_46D_Hits 12193
XXX BTB_Ret_Hits 841105
XXX BTB_4D_Misses 102709
XXX BTB_6D_Misses 27356
XXX BTB_8D_Misses 62657
XXX BTB_12D_Misses 44302
XXX BTB_18D_Misses 33164
XXX BTB_25D_Misses 80479
XXX BTB_46D_Misses 95343
XXX BTB_Ret_Misses 41386
XXX Num_unique_branches 22348
total instructions: 0
wc,tif,trb
1253,7804,18189
1748,9834,15955
1950,14363,12974
1081,8542,8352
844,5794,9938
80,677,325
3200,15622,25141
640,3590,6008
475,2888,3748
234,1851,3547
458,3428,3954
2630,11734,26015
1166,7757,11986
218,1726,2202
816,4047,12979
815,4601,9284
1428,8739,17564
900,6422,6157
2722,13471,25726
2223,15992,13573
1282,9049,7762
1004,4617,9464
1820,12030,13371
1172,6106,11613
1139,6077,11574
36,234,370
384,2790,2747
1338,8604,10462
2332,14142,18408
341,2166,1909
1498,10280,15378
1077,9264,4982
2037,10628,18315
1977,13256,13908
576,2788,7946
1849,16315,4618
969,5623,14073
362,2625,4240
590,3130,10442
2263,12558,12796
1992,12760,11942
807,4006,11459
884,6574,6973
603,3186,8553
1607,7620,18684
1129,7372,13549
1859,12252,14643
1489,11786,13689
536,3812,3705
165,869,2064
1342,10469,5930
2245,11792,14507
860,5904,8063
2882,15358,28086
165,634,3117
1586,11468,10344
1010,6048,10873
1265,6420,13835
454,1899,9125
1504,8080,14517
1703,9732,15867
3627,21458,33666
2260,13774,20831
859,3342,12003
1914,11742,18979
1895,14430,11424
2540,12214,26158
2212,12652,11990
29,145,220
1520,8757,16378
2544,12234,20054
1075,6378,11242
1610,8408,16839
576,4547,4384
1652,5397,24870
1776,9615,17253
865,3571,15352
19,51,298
1116,7590,13275
716,3814,7508
1407,9176,11171
1338,4875,19450
3345,17618,23149
2205,13310,17738
3897,23414,22004
1311,7354,15848
2246,10932,20187
1873,9094,19670
2561,13957,22355
2545,13535,22358
2283,13532,17351
1363,6161,18332
2391,19342,7703
2039,8169,21262
2609,18269,25749
1667,10597,13391
1133,6387,15387
2106,11377,16846
2681,15733,25880
898,4624,15524
1655,10779,14383
1595,7465,20319
1088,4402,16946
3539,22693,17134
1689,9250,16321
2170,10992,22926
893,3668,13565
1220,7446,9033
1017,6562,14729
674,4299,4047
2231,10323,23554
1166,9295,7395
767,4774,8234
2348,14802,22537
1040,6718,11147
3024,13979,28804
1354,7098,14263
1572,9882,13002
1487,6913,16601
1796,9553,16927
40,224,656
894,7862,9120
1736,9057,27754
2694,18418,21038
898,3210,17176
2527,16176,19817
1480,9375,16289
2641,13662,30977
2252,13451,19611
2248,12157,21548
1793,9576,20223
2972,15616,25636
2352,13236,26765
1606,8599,13655
2272,14288,11460
2599,18887,20096
1961,15089,8569
1156,6308,12388
1899,10814,21208
2640,10713,27598
860,4365,8589
1434,8983,12033
2258,10386,22661
1159,7097,14270
1418,9459,11119
757,3680,12157
1112,7263,13691
2643,14704,19047
2374,14541,12993
1247,9307,11242
2761,11650,26534
1968,7761,17383
383,1886,6533
2332,16498,13374
1518,9469,13637
2352,10849,17731
1855,7453,22788
862,4727,11917
2529,10556,30627
1654,9411,13803
2505,14929,17392
2838,14832,22497
1976,8074,23648
966,7003,8958
2865,14626,24774
44,317,547
2309,13466,21167
1224,4516,17893
2817,20523,16707
1419,9475,8632
1399,6807,13362
3517,23364,25235
1247,7421,14300
1914,8084,26457
991,3685,11446
1996,12003,16402
1197,7784,7079
1884,10686,18398
1278,5077,20380
1004,4332,12691
1773,7340,14258
719,4650,7450
2174,12535,11581
2161,11065,20749
2110,10762,24299
1633,10247,10524
3095,15204,25184
1560,8392,15972
1435,9386,11585
665,2313,13012
2186,13108,18726
1439,5465,19484
1704,8822,16484
2970,12776,30516
1254,10183,7200
2401,11830,25059
994,4157,18470
2632,12386,24963
1427,8350,12246
871,6077,10711
2364,13088,22057
1850,12511,15487
1787,9799,13430
2212,12887,16707
1462,8922,14279
1800,14101,11455
1341,8120,11000
948,4281,12017
2873,15643,22923
1471,10579,11942
934,4846,10898
1397,10692,12548
1152,6106,10402
2488,13617,21673
1759,9694,14944
2088,9093,21917
3565,17861,32107
962,5195,15864
3511,15865,37639
2625,14222,25955
770,3620,14554
4123,27062,27460
2607,17500,18108
2072,11268,26795
1728,10750,16123
2185,11745,22885
1224,8123,8124
3164,16958,19383
3165,20268,20944
2096,16011,16954
1801,9803,19031
1578,9921,12224
250,2138,2216
1270,8472,12264
2179,8657,30473
4410,22315,41466
1283,6994,11562
3765,17778,37926
1572,9058,15178
966,5757,12795
649,4426,7975
2981,13939,27350
1706,8392,14657
2067,9923,18969
3129,17937,22845
889,4705,11646
603,2425,9762
1366,6979,12418
814,4882,10907
2813,17957,16861
1749,8460,13815
1473,7236,15102
1833,11161,15555
2094,13805,10552
553,1945,11018
3995,21660,47223
543,3501,6628
2715,18386,12354
3276,20100,19788
787,4206,9516
1572,7671,16872
183,1259,2014
2147,11121,18685
79,621,602
876,5215,8391
2783,19368,10150
1903,9878,20332
1161,7423,10437
1793,6779,21396
1895,8743,15451
1733,8231,16414
1814,7891,18545
2115,14652,18184
1920,10633,16125
588,3142,6950
1350,8052,10651
2257,14639,15193
2801,14936,26526
3036,13940,25926
2242,8649,20124
2240,13404,21496
998,6432,10862
1399,8168,15907
2331,11877,19830
2569,21160,12759
1993,9583,21142
1185,7973,10241
2766,19117,22207
1948,12833,13015
1870,9867,17703
1120,8032,8757
2286,16293,12139
1058,4793,14468
2462,12000,21282
1259,7766,11021
2888,16172,26620
1616,11178,10031
2071,15662,9848
925,5135,9654
3039,15756,32356
1800,13647,12266
1794,9407,16013
2429,12383,19791
2799,16718,20891
1507,9549,13243
1746,12208,10748
2458,11242,29168
2603,14531,19239
2338,13583,23551
2265,10028,19432
530,3149,9241
778,2901,13691
1738,11711,8185
842,6001,7172
2021,14730,15911
2100,11721,30494
3596,22610,24785
809,3255,12666
2000,9549,21131
2454,16127,22482
2114,16147,9692
2123,14214,14847
2575,16577,20619
2445,17322,11990
412,2503,3483
76,521,731
1358,7311,17639
1504,7810,14188
1207,6254,16302
1764,11779,13924
3007,17907,19977
2996,17524,21286
1060,7076,9208
1907,10312,18600
1287,7497,10275
2088,10029,21271
1260,7375,11599
1214,5581,14335
530,4509,3433
1885,9047,18431
1411,5544,14744
3563,20962,28534
1802,9034,15953
1764,8443,17211
556,3459,3873
1963,13646,14932
4040,14102,41953
1633,12220,10885
3192,15453,28337
3616,21367,24859
2070,13717,20607
2119,10781,22520
761,3077,14168
2493,14247,24904
1670,7968,12425
455,2713,6194
450,2734,4609
1062,7960,7801
1539,9562,14774
498,2650,6012
1773,12831,9126
752,4624,11298
2336,11248,23984
1661,13646,7782
736,4108,12436
1658,9730,14326
1369,7088,7674
1169,8431,7392
814,5288,8169
2581,13316,18698
741,4099,9601
3693,19252,30974
1925,9527,15038
1843,9542,20107
1628,6895,15307
1928,8501,14201
1928,12509,11097
3448,26456,15218
986,6053,8899
2059,10766,16750
1562,9051,12568
2128,9943,17866
1216,7891,14870
1900,10716,14527
1785,9984,12191
1052,6353,5479
1289,6315,12327
1534,9336,13142
1789,11268,12280
1093,4042,17391
187,862,2803
1330,7824,9669
1106,8014,8051
1957,17461,10840
2351,13828,12970
1142,5112,12909
2120,12210,17118
1619,8769,13045
2682,13450,28988
1096,6284,11965
1188,7198,12009
2134,14329,13242
1919,12006,16216
2541,13759,17756
1699,11316,15718
3174,15999,24670
2261,10176,30937
1578,8484,19155
1598,8043,18513
1529,8557,13066
2719,14914,21731
1049,4273,18709
2512,13690,20843
3609,17984,33440
2159,10579,23298
1480,9947,12363
1628,8483,12421
2511,13277,23678
960,5618,10144
1571,10824,16270
389,2802,5173
1099,10372,3524
1080,5461,11168
3743,19235,33689
2392,11667,19070
2323,11871,23432
1799,9888,13887
3784,15527,44093
2190,10602,28719
1899,12813,17220
475,1266,9457
1108,6818,7741
2362,13436,16087
1240,9040,10729
1837,10773,15441
2977,11922,29918
2534,15515,13606
2176,14972,13188
1446,7755,12821
2200,10836,18769
2216,11490,19045
1968,9930,28198
1362,10935,9850
3917,22984,22433
738,4166,10386
1489,9298,11289
2385,14538,20651
2978,20416,28824
1792,15858,11282
2351,15003,13069
1222,5102,12377
2267,10749,24085
275,814,5030
1764,10368,15647
2550,14946,9190
2019,14245,9800
2866,15793,22134
195,1817,1518
838,3980,12777
761,4874,8976
3466,23493,25900
1555,7694,18722
2526,18021,17916
1715,9380,21278
1691,8438,14498
1867,8568,30053
1631,11762,12088
3517,19837,32443
1676,13753,8109
4246,21600,40611
1321,5018,16507
1027,7071,6979
1724,9132,17424
1987,10665,23503
2729,15611,35484
1441,7068,16463
955,6068,10343
729,4407,5808
1604,8625,18294
1589,8132,15403
2360,13613,15332
785,3601,13532
1376,10835,9819
2761,19649,14319
1086,5921,16365
518,2853,6627
2957,18178,22747
1858,7603,20771
1436,8510,14754
1739,9334,17817
1099,6311,11112
1286,7585,13778
424,1770,8470
2853,10792,34468
566,4719,3598
2243,10517,17511
1607,8785,7892
1063,5789,12621
4209,26846,42431
572,4932,5273
850,6775,6521
87,577,968
1534,8011,20184
1327,6622,12101
2155,14333,16447
805,2917,14088
1800,10157,20018
2239,12032,17208
805,4898,7293
1911,11775,25908
1371,11578,18272
2040,11956,27111
