Initialize SIGNATURE TABLE
ST_SET: 1
ST_WAY: 256
ST_TAG_BIT: 16
ST_TAG_MASK: ffff

Initialize PATTERN TABLE
PT_SET: 512
PT_WAY: 4
SIG_DELTA_BIT: 7
C_SIG_BIT: 4
C_DELTA_BIT: 4

Initialize PREFETCH FILTER
FILTER_SET: 1024

*** ChampSim Multicore Out-of-Order Simulator ***

Warmup Instructions: 50000000
Simulation Instructions: 50000000
Number of CPUs: 1
LLC sets: 2048
LLC ways: 16
Off-chip DRAM Size: 4096 MB Channels: 1 Width: 64-bit Data Rate: 3200 MT/s

CPU 0 runs /ChampSim-master-BTBX/dpc3_traces/server_009.champsimtrace.xz
Basic BTB sets: 4096 ways: 4 indirect buffer size: 4096 RAS size: 64
CPU 0 L1D next line prefetcher
Heartbeat CPU 0 instructions: 10000003 cycles: 3195565 heartbeat IPC: 3.12934 cumulative IPC: 3.12934 (Simulation time: 0 hr 0 min 18 sec) 
Heartbeat CPU 0 instructions: 20000001 cycles: 6383634 heartbeat IPC: 3.13669 cumulative IPC: 3.13301 (Simulation time: 0 hr 0 min 36 sec) 
Heartbeat CPU 0 instructions: 30000002 cycles: 9586972 heartbeat IPC: 3.12174 cumulative IPC: 3.12925 (Simulation time: 0 hr 0 min 55 sec) 
Heartbeat CPU 0 instructions: 40000003 cycles: 12786554 heartbeat IPC: 3.12541 cumulative IPC: 3.12829 (Simulation time: 0 hr 1 min 13 sec) 
Heartbeat CPU 0 instructions: 50000000 cycles: 16042952 heartbeat IPC: 3.07088 cumulative IPC: 3.11663 (Simulation time: 0 hr 1 min 32 sec) 

Warmup complete CPU 0 instructions: 50000004 cycles: 16042953 (Simulation time: 0 hr 1 min 32 sec) 

Heartbeat CPU 0 instructions: 60000001 cycles: 36876182 heartbeat IPC: 0.480002 cumulative IPC: 0.480002 (Simulation time: 0 hr 1 min 57 sec) 
Heartbeat CPU 0 instructions: 70000001 cycles: 63424762 heartbeat IPC: 0.376668 cumulative IPC: 0.422103 (Simulation time: 0 hr 2 min 25 sec) 
Heartbeat CPU 0 instructions: 80000000 cycles: 75274550 heartbeat IPC: 0.843897 cumulative IPC: 0.506486 (Simulation time: 0 hr 2 min 43 sec) 
Heartbeat CPU 0 instructions: 90000001 cycles: 87289088 heartbeat IPC: 0.832325 cumulative IPC: 0.561434 (Simulation time: 0 hr 3 min 1 sec) 
Heartbeat CPU 0 instructions: 100000001 cycles: 99169205 heartbeat IPC: 0.841743 cumulative IPC: 0.601495 (Simulation time: 0 hr 3 min 19 sec) 
Finished CPU 0 instructions: 50000000 cycles: 83126253 cumulative IPC: 0.601495 (Simulation time: 0 hr 3 min 19 sec) 

ChampSim completed all CPUs

Region of Interest Statistics

CPU 0
XXX cumulative-IPC 0.601495
XXX instructions 50000000
XXX cycles 83126253
L1D TOTAL     ACCESS:   22606208  HIT:   18024300  MISS:    4581908
L1D LOAD      ACCESS:    9072095  HIT:    6800115  MISS:    2271980
L1D RFO       ACCESS:    4656838  HIT:    4551826  MISS:     105012
L1D PREFETCH  ACCESS:    8877275  HIT:    6672359  MISS:    2204916
L1D WRITEBACK ACCESS:          0  HIT:          0  MISS:          0
L1D PREFETCH  REQUESTED:    9104247  ISSUED:    9005386
XXX L1D-USEFUL 115542
XXX L1D-USELESS 2089373
L1D AVERAGE MISS LATENCY: 20.0585 cycles
L1I TOTAL     ACCESS:   14820284  HIT:   13577010  MISS:    1243274
L1I LOAD      ACCESS:   10148916  HIT:    9384210  MISS:     764706
L1I RFO       ACCESS:          0  HIT:          0  MISS:          0
L1I PREFETCH  ACCESS:    4671368  HIT:    4192800  MISS:     478568
L1I WRITEBACK ACCESS:          0  HIT:          0  MISS:          0
L1I PREFETCH  REQUESTED:    6074504  ISSUED:    6074504
XXX L1I-USEFUL 296904
XXX L1I-USELESS 181682
L1I AVERAGE MISS LATENCY: 17.3919 cycles
L2C TOTAL     ACCESS:    7578383  HIT:    6488414  MISS:    1089969
L2C LOAD      ACCESS:    2560305  HIT:    2303234  MISS:     257071
L2C RFO       ACCESS:     104122  HIT:      63917  MISS:      40205
L2C PREFETCH  ACCESS:    4657044  HIT:    3865690  MISS:     791354
L2C WRITEBACK ACCESS:     256912  HIT:     255573  MISS:       1339
L2C PREFETCH  REQUESTED:    7203696  ISSUED:    7203535
XXX L2C-USEFUL 80897
XXX L2C-USELESS 709132
L2C AVERAGE MISS LATENCY: 43.6894 cycles
LLC TOTAL     ACCESS:    2307970  HIT:    2170176  MISS:     137794
LLC LOAD      ACCESS:     256762  HIT:     238857  MISS:      17905
LLC RFO       ACCESS:      40202  HIT:      31423  MISS:       8779
LLC PREFETCH  ACCESS:    1874897  HIT:    1763981  MISS:     110916
LLC WRITEBACK ACCESS:     136109  HIT:     135915  MISS:        194
LLC PREFETCH  REQUESTED:          0  ISSUED:          0
XXX LLC-USEFUL 13425
XXX LLC-USELESS 94078
LLC AVERAGE MISS LATENCY: 162.671 cycles
Major fault: 0 Minor fault: 6356
XXX disp-0 1802619
XXX disp-1 0
XXX disp-2 406
XXX disp-3 992760
XXX disp-4 1696784
XXX disp-5 573624
XXX disp-6 608088
XXX disp-7 618344
XXX disp-8 378162
XXX disp-9 257602
XXX disp-10 258496
XXX disp-11 129277
XXX disp-12 69271
XXX disp-13 60085
XXX disp-14 73491
XXX disp-15 138458
XXX disp-16 42893
XXX disp-17 65589
XXX disp-18 153267
XXX disp-19 115577
XXX disp-20 239626
XXX disp-21 205574
XXX disp-22 192941
XXX disp-23 168862
XXX disp-24 54476
XXX disp-25 73340
XXX disp-26 29291
XXX disp-27 452
XXX disp-28 23274
XXX disp-29 0
XXX disp-30 0
XXX disp-31 0
XXX disp-32 0
XXX disp-33 0
XXX disp-34 0
XXX disp-35 0
XXX disp-36 0
XXX disp-37 0
XXX disp-38 0
XXX disp-39 0
XXX disp-40 0
XXX disp-41 0
XXX disp-42 0
XXX disp-43 0
XXX disp-44 0
XXX disp-45 0
XXX disp-46 0
XXX disp-47 0
XXX disp-48 0
XXX disp-49 0
XXX disp-50 0
XXX disp-51 0
XXX disp-52 0
XXX disp-53 0
XXX disp-54 0
XXX disp-55 0
XXX disp-56 0
XXX disp-57 0
XXX disp-58 0
XXX disp-59 0
XXX disp-60 0
XXX disp-61 0
XXX disp-62 0
XXX disp-63 10
XXX disp-64 0
XXX disp-65 0
XXX diffBits-0 1802619
XXX diffBits-1 110
XXX diffBits-2 252407
XXX diffBits-3 593972
XXX diffBits-4 750898
XXX diffBits-5 1481671
XXX diffBits-6 584950
XXX diffBits-7 566431
XXX diffBits-8 373527
XXX diffBits-9 429414
XXX diffBits-10 172175
XXX diffBits-11 103489
XXX diffBits-12 181669
XXX diffBits-13 123739
XXX diffBits-14 74861
XXX diffBits-15 100966
XXX diffBits-16 101476
XXX diffBits-17 89856
XXX diffBits-18 89953
XXX diffBits-19 219714
XXX diffBits-20 223884
XXX diffBits-21 127883
XXX diffBits-22 254705
XXX diffBits-23 195903
XXX diffBits-24 0
XXX diffBits-25 102631
XXX diffBits-26 0
XXX diffBits-27 23726
XXX diffBits-28 0
XXX diffBits-29 0
XXX diffBits-30 0
XXX diffBits-31 0
XXX diffBits-32 0
XXX diffBits-33 0
XXX diffBits-34 0
XXX diffBits-35 0
XXX diffBits-36 0
XXX diffBits-37 0
XXX diffBits-38 0
XXX diffBits-39 0
XXX diffBits-40 0
XXX diffBits-41 0
XXX diffBits-42 0
XXX diffBits-43 0
XXX diffBits-44 0
XXX diffBits-45 0
XXX diffBits-46 0
XXX diffBits-47 0
XXX diffBits-48 0
XXX diffBits-49 0
XXX diffBits-50 0
XXX diffBits-51 0
XXX diffBits-52 0
XXX diffBits-53 0
XXX diffBits-54 0
XXX diffBits-55 0
XXX diffBits-56 0
XXX diffBits-57 0
XXX diffBits-58 0
XXX diffBits-59 0
XXX diffBits-60 0
XXX diffBits-61 0
XXX diffBits-62 10
XXX diffBits-63 0
XXX diffBits-64 0
XXX diffBits-65 0
CPU 0 L1D next line prefetcher final stats

DRAM Statistics
 CHANNEL 0
 RQ ROW_BUFFER_HIT:      27861  ROW_BUFFER_MISS:     109734
 DBUS_CONGESTED:      50333
 WQ ROW_BUFFER_HIT:       8312  ROW_BUFFER_MISS:      38769  FULL:          0

 AVG_CONGESTED_CYCLE: 5

CPU 0 Branch Prediction Accuracy: 91.3853% MPKI: 18.1651 Average ROB Occupancy at Mispredict: 51.9464

XXX total_mispredicts 908255
XXX total_target_mispredicts1 585297
XXX total_target_mispredicts2 188512
XXX total_direction_mispredicts 134446
XXX mispredict_on_btb_hit 376555
XXX NOT_BRANCH: 0
XXX BRANCH_DIRECT_JUMP: 4518
XXX BRANCH_INDIRECT: 19219
XXX BRANCH_CONDITIONAL: 0
XXX BRANCH_DIRECT_CALL: 3065
XXX BRANCH_INDIRECT_CALL: 3839
XXX BRANCH_RETURN: 345914
XXX BRANCH_OTHER: 0
Branch types
NOT_BRANCH: 39456553 78.9131%
BRANCH_DIRECT_JUMP: 445350 0.8907%
BRANCH_INDIRECT: 131149 0.262298%
BRANCH_CONDITIONAL: 8130180 16.2604%
BRANCH_DIRECT_CALL: 732485 1.46497%
BRANCH_INDIRECT_CALL: 172369 0.344738%
BRANCH_RETURN: 931557 1.86311%
BRANCH_OTHER: 0 0%

XXX BTB_reads: 11027541
XXX BTB_writes: 391774
XXX PageBTB_reads: 0
XXX PageBTB_writes: 0
XXX PageBTB_readsBeforeWrite: 0
XXX RegionBTB_reads: 0
XXX RegionBTB_writes: 0
XXX RegionBTB_readsBeforeWrite: 0
XXX BTB_4D_Hits 712293
XXX BTB_6D_Hits 1398524
XXX BTB_8D_Hits 608580
XXX BTB_12D_Hits 259153
XXX BTB_18D_Hits 376058
XXX BTB_25D_Hits 290542
XXX BTB_46D_Hits 9598
XXX BTB_Ret_Hits 898156
XXX BTB_4D_Misses 82951
XXX BTB_6D_Misses 22052
XXX BTB_8D_Misses 50673
XXX BTB_12D_Misses 35662
XXX BTB_18D_Misses 26769
XXX BTB_25D_Misses 64285
XXX BTB_46D_Misses 75981
XXX BTB_Ret_Misses 33401
XXX Num_unique_branches 24210
total instructions: 0
wc,tif,trb
1159,7218,16997
1596,8967,14819
1787,13144,11793
998,7661,7582
823,5448,9545
87,629,350
2877,13886,22603
560,3213,5374
409,2473,3089
217,1691,3258
492,3431,3962
2390,10563,23455
1088,7299,10901
201,1597,1951
731,3721,11718
747,4073,8266
1272,7880,15710
817,5596,5559
2376,11561,22581
2032,14396,12332
1266,8742,8098
897,4255,8382
1633,10717,12059
1039,5656,10188
1053,5473,10463
48,351,333
341,2376,2508
1234,8115,9702
2097,12952,16397
259,1924,1492
1319,9008,13649
875,7845,4314
1856,9222,16891
1763,11873,12472
527,2576,7579
1731,14890,4617
830,4943,12044
453,3255,4650
563,2838,9851
1980,11345,11051
1768,11342,10855
732,3627,10293
831,6109,6504
551,2779,7616
1422,6666,16329
1020,6687,12143
1686,10797,13309
1346,10589,12205
532,3873,3419
168,826,1966
1181,9034,5243
2036,10805,13160
818,5551,7607
2547,13586,24825
162,688,2808
1398,10034,9067
917,5584,9573
1153,5562,12605
401,1683,7956
1412,7504,13580
1597,9295,15022
3221,19363,29413
2054,12433,18923
785,2938,10833
1650,10284,16185
1668,12093,10128
2281,11245,22956
1988,11336,10743
27,118,209
1369,7810,14761
2232,10839,17591
931,5573,9816
1451,7521,14814
563,4370,4036
1438,4660,21547
1576,8661,15256
828,3556,14216
20,94,228
1011,6942,12120
647,3286,6779
1308,8652,10492
1165,4451,17084
2941,15339,20271
1979,11831,15966
3437,20240,19520
1124,6364,13897
2024,10192,18062
1641,8078,17494
2355,12089,20838
2280,11812,19826
2076,12377,15627
1225,5448,16301
2192,17662,7178
1817,7219,19010
2370,16751,23581
1478,9186,11947
1013,5600,13895
1845,9987,15227
2442,14633,23454
750,3930,12868
1469,9650,12556
1393,6555,17962
1012,4122,15336
3138,20593,15321
1521,8113,14673
1908,9725,20061
798,3383,11735
1105,6816,8205
956,5963,13612
615,4024,3665
1993,9095,20721
1076,8550,6898
675,3960,7558
2092,13062,20622
905,5635,9612
2646,12021,25409
1264,6380,13030
1499,9279,12919
1338,6079,14775
1625,8972,15262
115,646,1999
881,7423,9168
1566,8280,25061
2366,15535,18574
818,2957,15545
2259,15093,17333
1337,8419,14764
2392,12397,28044
2046,12010,17695
1974,10929,18125
1757,9130,18579
2680,13807,23165
2173,12313,24507
1531,8094,12687
2104,13194,10663
2368,16814,18142
1771,14254,8115
1092,5564,11081
1704,9678,18998
2471,10642,25355
779,4108,7631
1299,7993,10993
1975,9226,19313
1148,6755,13573
1245,8441,10033
756,3740,11099
1103,6990,12369
2355,12963,16926
2161,13027,12019
1141,8549,10278
2466,10497,23460
1780,7073,15965
312,1614,5495
2055,14531,11752
1331,8197,11650
2112,9520,15696
1649,6731,20078
768,4105,10668
2261,9506,27449
1477,8423,12142
2236,13310,15609
2541,13450,20305
1772,7266,21170
899,5604,8384
2632,13360,22652
54,280,643
2147,12261,19389
1074,3772,15677
2549,18206,15164
1218,8390,7169
1285,6237,12086
3188,20504,22757
1151,6682,13210
1721,7025,23764
887,3189,10232
1804,10450,14894
1087,7054,6565
1631,9571,16220
1168,4638,18232
919,4136,11452
1606,6870,13034
662,4205,6603
1959,12092,10589
1979,10332,18994
2005,10328,22567
1450,9164,9452
2793,13828,23238
1370,7224,13957
1295,8420,10377
646,2279,12398
1896,11392,16378
1319,5135,17639
1548,8055,14415
2751,11942,27357
1134,9560,6508
2188,10468,22497
923,3710,16431
2393,11162,22720
1291,7637,11239
748,5089,9422
2237,12054,20161
1783,11757,14163
1608,8957,12005
2081,11759,15291
1310,8046,13114
1646,12448,10574
1240,7575,10075
892,3672,11239
2540,13968,20491
1369,9693,11058
851,4222,10006
1237,9543,11261
1009,5317,9083
2220,11956,19093
1564,8685,13224
1900,8236,19963
3238,16401,28852
922,5039,15409
3202,14115,34377
2349,12798,23338
690,3235,12974
3757,24508,24945
2377,15948,16924
1870,10269,23897
1626,10173,15516
1994,10511,21046
1151,7521,7616
2864,15128,17676
2899,18610,19217
1834,13945,14793
1657,8818,17286
1374,8746,10567
379,2704,2388
1163,8023,11393
1982,7814,27377
3960,20114,36898
1159,6229,10347
3389,16099,33965
1477,8364,14011
1101,6511,12542
590,4052,7354
2630,12167,23902
1540,7630,13237
1864,9139,17019
2759,15972,20274
785,4064,10246
517,2123,8354
1227,6414,11033
762,4528,10050
2524,16314,14848
1608,7797,12824
1414,6604,14347
1648,10058,14109
1888,12554,9804
539,2054,10213
3629,19770,42688
472,3086,5823
2420,16560,11152
2964,18459,17871
711,3693,8398
1452,6944,15543
228,1582,2437
1895,10099,16438
96,481,626
863,5003,8294
2519,17085,9624
1757,9153,18622
1043,7074,9688
1636,6335,19552
1663,8032,13690
1553,7389,14789
1633,7055,16212
1910,13240,16398
1714,9317,14303
529,2902,6348
1223,7102,9933
2071,13256,13684
2458,13353,23235
2795,13081,23695
2028,7769,18358
2038,12221,19518
907,5607,9814
1247,7338,14308
2099,10795,17625
2299,18667,11453
1816,8858,19552
1099,7377,9480
2476,16957,19893
1762,11621,11886
1685,8734,15960
1008,7287,7856
2060,14591,10540
913,4005,12426
2140,10077,19129
1058,6827,9231
2615,14838,24134
1435,9868,8903
1887,14043,9058
864,4813,8730
2664,13703,27910
1659,12410,11211
1588,8186,14304
2172,10910,17630
2460,14610,18586
1429,8825,12470
1550,10959,10015
2237,9518,25286
2321,13211,17285
2041,11868,21036
2086,8768,18041
503,2823,8492
767,3088,13263
1603,11206,7856
797,5645,6835
1812,13446,14244
1846,9447,26306
3155,19738,21888
773,2886,11794
1784,8409,18859
2182,13878,19508
1868,14118,8743
1875,12604,13177
2233,14462,17652
2289,15721,11270
393,2673,3424
84,492,856
1215,6525,15970
1292,6912,12372
1033,5078,14298
1468,10092,12061
2714,16113,17914
2685,15291,19429
1020,6450,8815
1713,9158,16710
1159,6903,9160
1911,9138,19711
1117,6571,10252
1088,5048,12341
478,3994,3040
1654,8249,15812
1386,5630,14351
3217,19270,25836
1606,8237,14148
1631,7657,14906
484,3024,3351
1758,12097,13139
3570,12083,36825
1496,10614,10074
2866,14133,25459
3186,18611,21954
1860,12350,18522
1890,9501,20084
729,3013,13354
2248,12924,22250
1452,6990,10880
385,2460,5242
417,2484,4154
954,7212,7104
1366,8652,13270
484,2411,5607
1583,11665,8213
672,3963,10105
2111,10417,21733
1509,12476,6977
686,3689,11379
1454,8531,12744
1207,6519,6913
1040,7679,6756
741,4524,7508
2328,12193,16966
674,3839,8504
3300,17655,27690
1689,8414,13279
1718,8457,18738
1450,6117,13630
1732,7540,12701
1743,11481,9856
3074,23540,13793
906,5341,8218
1848,9759,14895
1410,8242,11596
1892,8720,15896
1064,6835,13026
1713,9714,13181
1545,8732,10471
980,6132,5097
1124,5323,10941
1371,8474,11749
1617,9931,11139
963,3657,15460
223,976,3290
1189,7083,8511
959,6760,7305
1777,15352,9903
2128,12805,11504
1080,4634,12333
1936,11179,15501
1533,8025,12464
2353,11485,25520
1009,5650,11059
1102,6015,11387
1902,12660,11826
1631,10372,14021
2269,12385,15859
1491,9740,13693
2896,14606,22469
2041,9188,27666
1475,7939,17938
1413,7219,16509
1369,7596,11500
2432,13392,19573
961,3834,16706
2259,12265,19027
3246,16005,29851
1955,9645,21177
1357,9313,11331
1449,7917,10852
2238,11500,21255
875,4876,9180
1416,9623,14817
361,2264,5233
936,8467,2995
966,5348,10169
3279,17234,29440
2062,10200,16221
2112,10803,21753
1645,8971,12683
3347,13869,38705
1973,9335,26037
1660,11314,15314
405,1084,8192
975,5838,6786
2097,11981,13628
1157,8418,10037
1652,9576,13778
2687,10919,27055
2294,13996,12337
1936,14122,12204
1327,7375,11742
1976,9964,16903
1974,10057,16823
1743,8783,24735
1220,9788,9023
3371,17568,18636
520,3202,7056
1317,8224,9929
2144,13116,18604
2620,17840,25103
1596,13983,10060
2094,13301,11411
1049,4485,10885
2033,9868,21969
271,857,4849
1614,9585,14069
2092,12167,8005
1798,13105,8719
2594,14286,20110
180,1501,1435
750,3473,11252
708,4532,8426
3077,21231,23003
1366,6853,16729
2283,16024,15950
1529,8093,18693
1555,7720,13603
1670,7813,26767
1478,11348,11073
3102,17605,28294
1500,12272,7216
3790,19324,36397
1169,4360,14665
904,6234,5994
1509,7975,15449
1820,9787,21268
2494,14217,32258
1282,6551,14815
824,5472,8606
735,4911,6051
1377,7529,15511
1435,7209,13832
2141,12273,13809
709,3252,11870
1238,9572,8841
2424,17541,12246
1049,5527,15700
430,2438,5899
2685,16018,20322
1683,6743,18803
1270,7606,12836
1585,8355,16133
1008,5835,10227
1179,6936,12476
371,1576,7409
2423,9088,28867
492,4095,3310
1995,9693,15477
1440,7894,7122
1004,5654,11425
3635,23313,36866
525,4249,4800
777,6477,6022
96,596,1108
1360,7131,17998
1195,6125,10833
1932,12676,14762
708,2551,12463
1649,9397,18361
2059,11001,15666
751,4327,6725
1653,10208,22698
1264,10342,17017
1810,10642,24007
