Initialize SIGNATURE TABLE
ST_SET: 1
ST_WAY: 256
ST_TAG_BIT: 16
ST_TAG_MASK: ffff

Initialize PATTERN TABLE
PT_SET: 512
PT_WAY: 4
SIG_DELTA_BIT: 7
C_SIG_BIT: 4
C_DELTA_BIT: 4

Initialize PREFETCH FILTER
FILTER_SET: 1024

*** ChampSim Multicore Out-of-Order Simulator ***

Warmup Instructions: 50000000
Simulation Instructions: 50000000
Number of CPUs: 1
LLC sets: 2048
LLC ways: 16
Off-chip DRAM Size: 4096 MB Channels: 1 Width: 64-bit Data Rate: 3200 MT/s

CPU 0 runs /ChampSim-master-BTBX/dpc3_traces/server_001.champsimtrace.xz
Basic BTB sets: 4096 ways: 4 indirect buffer size: 4096 RAS size: 64
CPU 0 L1D next line prefetcher
Heartbeat CPU 0 instructions: 10000002 cycles: 3154533 heartbeat IPC: 3.17004 cumulative IPC: 3.17004 (Simulation time: 0 hr 0 min 18 sec) 
Heartbeat CPU 0 instructions: 20000000 cycles: 6368810 heartbeat IPC: 3.11112 cumulative IPC: 3.1403 (Simulation time: 0 hr 0 min 35 sec) 
Heartbeat CPU 0 instructions: 30000003 cycles: 9554162 heartbeat IPC: 3.13937 cumulative IPC: 3.13999 (Simulation time: 0 hr 0 min 51 sec) 
Heartbeat CPU 0 instructions: 40000002 cycles: 12760993 heartbeat IPC: 3.11834 cumulative IPC: 3.13455 (Simulation time: 0 hr 1 min 8 sec) 
Heartbeat CPU 0 instructions: 50000003 cycles: 15979216 heartbeat IPC: 3.10731 cumulative IPC: 3.12906 (Simulation time: 0 hr 1 min 26 sec) 

Warmup complete CPU 0 instructions: 50000003 cycles: 15979216 (Simulation time: 0 hr 1 min 26 sec) 

Heartbeat CPU 0 instructions: 60000002 cycles: 25926709 heartbeat IPC: 1.00528 cumulative IPC: 1.00528 (Simulation time: 0 hr 1 min 43 sec) 
Heartbeat CPU 0 instructions: 70000001 cycles: 35479344 heartbeat IPC: 1.04683 cumulative IPC: 1.02563 (Simulation time: 0 hr 2 min 1 sec) 
Heartbeat CPU 0 instructions: 80000001 cycles: 45228792 heartbeat IPC: 1.0257 cumulative IPC: 1.02566 (Simulation time: 0 hr 2 min 20 sec) 
Heartbeat CPU 0 instructions: 90000002 cycles: 55222898 heartbeat IPC: 1.00059 cumulative IPC: 1.01927 (Simulation time: 0 hr 2 min 37 sec) 
Heartbeat CPU 0 instructions: 100000003 cycles: 64788244 heartbeat IPC: 1.04544 cumulative IPC: 1.0244 (Simulation time: 0 hr 2 min 55 sec) 
Finished CPU 0 instructions: 50000000 cycles: 48809028 cumulative IPC: 1.0244 (Simulation time: 0 hr 2 min 55 sec) 

ChampSim completed all CPUs

Region of Interest Statistics

CPU 0
XXX cumulative-IPC 1.0244
XXX instructions 50000000
XXX cycles 48809028
L1D TOTAL     ACCESS:   18231454  HIT:   17719981  MISS:     511473
L1D LOAD      ACCESS:    6722476  HIT:    6533160  MISS:     189316
L1D RFO       ACCESS:    5094672  HIT:    5010358  MISS:      84314
L1D PREFETCH  ACCESS:    6414306  HIT:    6176463  MISS:     237843
L1D WRITEBACK ACCESS:          0  HIT:          0  MISS:          0
L1D PREFETCH  REQUESTED:    6751343  ISSUED:    6574271
XXX L1D-USEFUL 146909
XXX L1D-USELESS 91062
L1D AVERAGE MISS LATENCY: 87.3249 cycles
L1I TOTAL     ACCESS:   12457935  HIT:   11797851  MISS:     660084
L1I LOAD      ACCESS:    8312796  HIT:    7901338  MISS:     411458
L1I RFO       ACCESS:          0  HIT:          0  MISS:          0
L1I PREFETCH  ACCESS:    4145139  HIT:    3896513  MISS:     248626
L1I WRITEBACK ACCESS:          0  HIT:          0  MISS:          0
L1I PREFETCH  REQUESTED:    4827343  ISSUED:    4827343
XXX L1I-USEFUL 169619
XXX L1I-USELESS 79026
L1I AVERAGE MISS LATENCY: 19.2921 cycles
L2C TOTAL     ACCESS:    1949882  HIT:    1463472  MISS:     486410
L2C LOAD      ACCESS:     449520  HIT:     341281  MISS:     108239
L2C RFO       ACCESS:      81200  HIT:      10466  MISS:      70734
L2C PREFETCH  ACCESS:    1211292  HIT:     904311  MISS:     306981
L2C WRITEBACK ACCESS:     207870  HIT:     207414  MISS:        456
L2C PREFETCH  REQUESTED:    1767062  ISSUED:    1766714
XXX L2C-USEFUL 37658
XXX L2C-USELESS 268160
L2C AVERAGE MISS LATENCY: 105.521 cycles
LLC TOTAL     ACCESS:    1164174  HIT:     833570  MISS:     330604
LLC LOAD      ACCESS:     108142  HIT:      77732  MISS:      30410
LLC RFO       ACCESS:      70734  HIT:       6579  MISS:      64155
LLC PREFETCH  ACCESS:     817861  HIT:     582085  MISS:     235776
LLC WRITEBACK ACCESS:     167437  HIT:     167174  MISS:        263
LLC PREFETCH  REQUESTED:          0  ISSUED:          0
XXX LLC-USEFUL 32472
XXX LLC-USELESS 197280
LLC AVERAGE MISS LATENCY: 193.348 cycles
Major fault: 0 Minor fault: 16701
XXX disp-0 1246583
XXX disp-1 0
XXX disp-2 28
XXX disp-3 1826459
XXX disp-4 424647
XXX disp-5 397492
XXX disp-6 420602
XXX disp-7 464658
XXX disp-8 249806
XXX disp-9 215972
XXX disp-10 124782
XXX disp-11 31407
XXX disp-12 54504
XXX disp-13 10236
XXX disp-14 45625
XXX disp-15 30370
XXX disp-16 46211
XXX disp-17 74196
XXX disp-18 138741
XXX disp-19 170978
XXX disp-20 308865
XXX disp-21 509238
XXX disp-22 76654
XXX disp-23 25277
XXX disp-24 13474
XXX disp-25 8354
XXX disp-26 9304
XXX disp-27 61
XXX disp-28 4180
XXX disp-29 0
XXX disp-30 0
XXX disp-31 0
XXX disp-32 0
XXX disp-33 0
XXX disp-34 0
XXX disp-35 0
XXX disp-36 0
XXX disp-37 0
XXX disp-38 0
XXX disp-39 0
XXX disp-40 0
XXX disp-41 0
XXX disp-42 0
XXX disp-43 0
XXX disp-44 0
XXX disp-45 0
XXX disp-46 0
XXX disp-47 0
XXX disp-48 0
XXX disp-49 0
XXX disp-50 0
XXX disp-51 0
XXX disp-52 0
XXX disp-53 0
XXX disp-54 0
XXX disp-55 0
XXX disp-56 0
XXX disp-57 0
XXX disp-58 0
XXX disp-59 0
XXX disp-60 0
XXX disp-61 0
XXX disp-62 0
XXX disp-63 5
XXX disp-64 0
XXX disp-65 0
XXX diffBits-0 1246583
XXX diffBits-1 27
XXX diffBits-2 438813
XXX diffBits-3 645006
XXX diffBits-4 932453
XXX diffBits-5 350200
XXX diffBits-6 379320
XXX diffBits-7 551712
XXX diffBits-8 307773
XXX diffBits-9 262564
XXX diffBits-10 166551
XXX diffBits-11 77429
XXX diffBits-12 31307
XXX diffBits-13 66180
XXX diffBits-14 15501
XXX diffBits-15 76667
XXX diffBits-16 29590
XXX diffBits-17 33113
XXX diffBits-18 143530
XXX diffBits-19 268947
XXX diffBits-20 449228
XXX diffBits-21 323005
XXX diffBits-22 39793
XXX diffBits-23 71513
XXX diffBits-24 0
XXX diffBits-25 17658
XXX diffBits-26 0
XXX diffBits-27 4241
XXX diffBits-28 0
XXX diffBits-29 0
XXX diffBits-30 0
XXX diffBits-31 0
XXX diffBits-32 0
XXX diffBits-33 0
XXX diffBits-34 0
XXX diffBits-35 0
XXX diffBits-36 0
XXX diffBits-37 0
XXX diffBits-38 0
XXX diffBits-39 0
XXX diffBits-40 0
XXX diffBits-41 0
XXX diffBits-42 0
XXX diffBits-43 0
XXX diffBits-44 0
XXX diffBits-45 0
XXX diffBits-46 0
XXX diffBits-47 0
XXX diffBits-48 0
XXX diffBits-49 0
XXX diffBits-50 0
XXX diffBits-51 0
XXX diffBits-52 0
XXX diffBits-53 0
XXX diffBits-54 0
XXX diffBits-55 0
XXX diffBits-56 0
XXX diffBits-57 0
XXX diffBits-58 0
XXX diffBits-59 0
XXX diffBits-60 0
XXX diffBits-61 0
XXX diffBits-62 5
XXX diffBits-63 0
XXX diffBits-64 0
XXX diffBits-65 0
CPU 0 L1D next line prefetcher final stats

DRAM Statistics
 CHANNEL 0
 RQ ROW_BUFFER_HIT:      94004  ROW_BUFFER_MISS:     236306
 DBUS_CONGESTED:     206303
 WQ ROW_BUFFER_HIT:      32037  ROW_BUFFER_MISS:     127523  FULL:          0

 AVG_CONGESTED_CYCLE: 6

CPU 0 Branch Prediction Accuracy: 95.846% MPKI: 7.08378 Average ROB Occupancy at Mispredict: 79.2393

XXX total_mispredicts 354189
XXX total_target_mispredicts1 240430
XXX total_target_mispredicts2 40877
XXX total_direction_mispredicts 72882
XXX mispredict_on_btb_hit 195584
XXX NOT_BRANCH: 0
XXX BRANCH_DIRECT_JUMP: 1115
XXX BRANCH_INDIRECT: 58084
XXX BRANCH_CONDITIONAL: 0
XXX BRANCH_DIRECT_CALL: 958
XXX BRANCH_INDIRECT_CALL: 595
XXX BRANCH_RETURN: 134832
XXX BRANCH_OTHER: 0
Branch types
NOT_BRANCH: 41473405 82.9468%
BRANCH_DIRECT_JUMP: 347939 0.695878%
BRANCH_INDIRECT: 148210 0.29642%
BRANCH_CONDITIONAL: 6817246 13.6345%
BRANCH_DIRECT_CALL: 570722 1.14144%
BRANCH_INDIRECT_CALL: 25133 0.050266%
BRANCH_RETURN: 617121 1.23424%
BRANCH_OTHER: 0 0%

XXX BTB_reads: 4291385
XXX BTB_writes: 84480
XXX PageBTB_reads: 0
XXX PageBTB_writes: 0
XXX PageBTB_readsBeforeWrite: 0
XXX RegionBTB_reads: 0
XXX RegionBTB_writes: 0
XXX RegionBTB_readsBeforeWrite: 0
XXX BTB_4D_Hits 986226
XXX BTB_6D_Hits 346984
XXX BTB_8D_Hits 544761
XXX BTB_12D_Hits 160963
XXX BTB_18D_Hits 481138
XXX BTB_25D_Hits 212818
XXX BTB_46D_Hits 1936
XXX BTB_Ret_Hits 610597
XXX BTB_4D_Misses 18342
XXX BTB_6D_Misses 4266
XXX BTB_8D_Misses 10751
XXX BTB_12D_Misses 8077
XXX BTB_18D_Misses 6488
XXX BTB_25D_Misses 12319
XXX BTB_46D_Misses 17713
XXX BTB_Ret_Misses 6524
XXX Num_unique_branches 17930
total instructions: 0
wc,tif,trb
389,2065,5121
342,1695,3459
284,2161,1896
448,2873,3064
67,646,373
401,2095,2293
584,3452,3679
81,371,1456
100,460,1270
116,874,1160
67,361,1042
397,1979,3651
260,2176,1535
336,1827,2284
314,1739,2512
98,700,1192
263,1394,1835
367,2625,1580
28,112,262
404,2190,2784
239,1262,2032
413,2039,5099
196,1093,1825
35,147,590
152,1368,867
52,213,967
250,1899,1266
374,2061,3525
297,2308,1836
382,2097,2485
358,2100,3218
265,2132,2056
302,1720,2982
246,1573,1637
339,1675,3150
472,3524,1828
369,1956,3406
95,661,748
12,44,124
513,2926,3629
85,577,702
11,45,82
183,1176,1576
77,496,574
102,379,1895
323,2214,2267
82,448,1096
296,2290,1776
101,340,1611
263,1571,1698
398,2330,3839
79,593,1145
488,2626,4451
424,2127,2863
133,831,967
101,764,805
227,524,3439
301,1982,2070
19,109,127
350,2172,2787
156,842,1944
502,2469,5469
226,1385,2021
486,1932,5950
314,2075,2460
183,1361,1060
219,1154,2784
244,1260,1403
256,1212,2649
194,1396,1938
296,1522,4182
261,1382,2545
387,2649,2171
413,3211,1991
171,1063,1493
270,1515,2017
68,593,359
274,1547,2688
287,1622,2662
237,1162,2254
217,1687,1142
159,1241,1039
214,879,3393
602,3148,4174
144,862,676
304,1719,3159
284,972,2603
321,1949,2466
387,2417,2821
180,1087,1263
161,1045,1560
239,1049,1673
249,1413,1999
421,2513,2769
596,3848,4700
223,1215,2431
290,1155,4043
493,2964,2793
661,3551,5614
274,1886,1330
174,1538,779
126,533,1387
142,1042,1036
298,1890,1844
162,866,1754
275,1250,2239
437,2808,2441
70,418,741
78,402,1352
131,716,2129
146,1173,1501
87,619,502
291,1564,2754
437,2685,3197
370,2814,2086
199,1347,2124
607,3085,5464
452,2581,2946
422,1835,3113
381,2078,3047
39,200,655
210,1450,2031
597,2997,5538
506,3607,3441
180,968,2098
222,1442,1928
390,2132,5122
357,1715,4300
362,1967,2871
526,3619,3672
261,1755,2241
172,824,2306
344,1965,3973
350,1919,2864
156,667,2073
546,3512,3706
342,2790,1513
85,456,844
227,1195,2120
334,1169,4002
155,1009,910
256,1434,1865
55,191,736
200,1188,2169
459,2919,2453
298,1485,4017
475,3674,2437
429,2436,3640
404,1968,3164
286,1887,2329
64,411,1016
113,539,1929
141,990,809
459,3388,2186
323,1620,4047
458,2351,2375
349,1683,3209
125,569,1667
257,1528,2477
291,1539,3068
301,1712,2697
328,1789,2358
379,2277,2838
288,2465,1887
499,2557,3804
30,169,381
76,659,521
312,1462,4492
284,2169,1736
180,978,1892
43,187,474
563,3195,4858
217,1570,1367
117,463,1482
136,553,1683
214,1460,1917
344,2353,2083
525,2356,4877
43,310,414
392,1828,3529
442,2181,3215
328,1625,3625
136,528,1837
312,1496,3764
307,2123,2387
281,1373,2964
431,2661,2496
335,1583,3142
525,2714,4475
317,1205,3806
208,1556,1043
207,895,2640
306,1989,1887
672,3136,7122
75,555,601
353,1950,2590
157,842,1531
362,2260,2208
289,1597,2268
122,549,1886
190,1362,1247
323,1845,2795
435,2861,3368
240,1281,1884
94,595,1395
42,253,553
33,111,502
383,1719,3760
752,4017,5149
217,1157,1861
305,1569,2215
248,1174,1579
154,1074,1512
328,1501,3025
266,1561,1627
145,875,1401
308,1446,2341
588,3956,4862
481,2428,4360
510,2641,4812
86,343,1687
505,3865,2501
353,1844,3477
342,2154,4025
437,2328,3890
248,1812,1187
233,1360,1807
498,2558,4287
495,3786,2276
380,1960,3558
329,1853,2329
253,1219,3225
83,393,1212
153,929,1330
192,1345,1353
663,3841,6100
373,1999,3522
863,3921,7771
257,1572,1807
182,875,2497
130,678,2009
575,2842,4432
321,2213,1425
458,2151,4496
336,2199,1780
227,1071,3087
308,1398,3262
362,2115,1742
241,1549,1835
600,3675,4669
56,261,433
365,1387,3934
334,2024,2265
32,213,277
233,1583,2014
634,3501,7599
111,695,1183
196,1550,1327
367,2432,2886
76,754,178
145,618,2129
114,605,1377
232,1404,1827
302,1515,2642
283,1456,2761
124,668,1149
365,1529,1997
102,597,863
171,825,2146
106,540,897
322,1773,2475
203,926,2014
327,2087,2225
583,3246,3663
138,704,1558
462,2241,3967
319,2303,2233
261,1515,1360
233,1320,2085
275,959,3281
130,1110,739
393,2733,2411
79,441,1286
321,2163,1969
309,2127,1956
87,571,696
60,525,389
313,1919,2516
320,1766,2683
272,1061,3172
373,2488,1713
268,1821,1614
84,411,1223
278,1498,1739
100,774,692
306,1533,4899
579,3554,3428
360,2638,1368
360,1698,3313
440,2092,6453
419,2780,2737
227,895,2996
301,1223,3402
271,1788,1773
387,2816,2199
124,1067,646
393,1996,4974
451,2688,2654
634,3021,5536
316,1394,4018
323,1856,3622
134,645,1663
99,650,526
42,160,704
225,1572,1903
444,2311,3640
481,3319,3354
394,1551,5284
367,1962,3619
302,2236,2231
259,1101,3465
55,337,307
341,2227,2467
335,2300,2356
261,1302,2993
174,1390,1131
353,2167,2527
386,1827,2975
323,2085,1984
143,900,929
303,1682,2100
383,1974,3732
246,1257,2637
204,1190,2996
302,1480,3162
227,1285,2378
152,1207,804
26,110,375
339,2083,2829
471,2299,3057
122,507,1532
311,1513,3519
181,925,1714
142,1097,1161
2784,13773,53561
352,1897,3567
261,1337,1634
262,1877,1347
212,1299,2363
293,1701,1950
528,3185,4352
255,1414,2407
144,476,2304
634,3856,4127
165,734,2198
301,2104,1799
102,433,1445
33,255,293
233,1491,2747
385,1920,3567
147,743,1834
49,212,442
251,1384,2232
139,873,1394
144,605,2431
245,838,3671
231,1102,1908
345,2023,1978
235,1533,2128
169,1016,767
42,301,234
392,2324,3923
30,146,352
331,1871,2212
171,835,2584
304,1761,1615
23,51,422
274,2287,1319
369,1821,3542
369,2449,2364
179,1380,2372
191,1166,1619
86,711,1231
116,506,1594
158,501,2412
295,1765,2112
204,875,3140
407,2034,3704
234,879,2083
9,4,91
258,1031,3450
222,1441,1622
218,1305,1869
294,2056,2088
222,1779,1383
92,648,1134
349,1792,2859
415,2820,2042
88,786,841
152,1156,1285
499,2491,4203
328,1972,2473
220,1570,1435
262,1533,1985
83,674,737
7,19,50
265,1260,4107
192,988,2521
442,2384,3233
322,1808,2381
458,2901,3473
96,691,1302
181,1012,1891
147,628,2583
481,2374,5400
257,1372,2493
98,840,544
330,1663,3873
412,2507,3107
536,3562,3908
124,824,1293
273,1822,1845
349,1661,2848
415,2213,3511
284,1301,3185
329,1943,4013
210,984,3020
504,2034,6492
210,1208,2116
395,2602,2592
274,1564,3376
235,1701,1561
196,806,2909
481,3325,3718
189,1274,2216
583,2527,6327
159,525,3049
430,2333,3225
299,1637,3251
418,2822,3002
312,1658,2001
376,2104,3128
309,2014,3711
66,325,667
170,775,1731
133,898,1219
437,2460,4543
207,1347,2206
437,3746,2171
162,872,1669
263,799,4708
579,2843,5200
23,119,343
545,3736,4213
155,1018,1321
153,858,1709
341,2050,2598
157,784,2123
147,1133,1024
208,1137,3333
153,870,1633
223,1139,2779
398,2878,2392
272,1563,2249
358,1715,3098
475,3167,3028
96,516,976
318,1635,2582
423,2888,1994
358,2292,3917
65,466,754
250,1199,3502
210,1160,2389
441,2338,3081
373,1804,4765
139,613,2278
168,782,1757
192,1312,2518
222,1492,2272
260,1426,3062
283,1683,1791
329,2176,2831
225,1235,2754
239,1820,1564
186,966,2910
321,1808,2526
337,1946,3088
323,1560,3056
246,2263,1212
235,1235,3559
126,436,1892
541,3048,3877
86,532,1046
485,2181,6582
109,645,1390
143,1073,1404
549,2890,5195
238,1391,2333
463,2656,5102
110,588,1608
324,2272,1847
299,1754,2442
237,1299,3375
194,1110,2412
343,2116,2578
361,1575,3964
455,2764,3848
455,3033,2439
60,416,493
319,1951,3135
397,2920,4685
164,1277,1861
