Initialize SIGNATURE TABLE
ST_SET: 1
ST_WAY: 256
ST_TAG_BIT: 16
ST_TAG_MASK: ffff

Initialize PATTERN TABLE
PT_SET: 512
PT_WAY: 4
SIG_DELTA_BIT: 7
C_SIG_BIT: 4
C_DELTA_BIT: 4

Initialize PREFETCH FILTER
FILTER_SET: 1024

*** ChampSim Multicore Out-of-Order Simulator ***

Warmup Instructions: 50000000
Simulation Instructions: 50000000
Number of CPUs: 1
LLC sets: 2048
LLC ways: 16
Off-chip DRAM Size: 4096 MB Channels: 1 Width: 64-bit Data Rate: 3200 MT/s

CPU 0 runs /ChampSim-master-BTBX/dpc3_traces/server_028.champsimtrace.xz
Basic BTB sets: 4096 ways: 4 indirect buffer size: 4096 RAS size: 64
CPU 0 L1D next line prefetcher
Heartbeat CPU 0 instructions: 10000001 cycles: 3496174 heartbeat IPC: 2.86027 cumulative IPC: 2.86027 (Simulation time: 0 hr 0 min 19 sec) 
Heartbeat CPU 0 instructions: 20000002 cycles: 6991614 heartbeat IPC: 2.86087 cumulative IPC: 2.86057 (Simulation time: 0 hr 0 min 37 sec) 
Heartbeat CPU 0 instructions: 30000001 cycles: 10485139 heartbeat IPC: 2.86244 cumulative IPC: 2.86119 (Simulation time: 0 hr 0 min 56 sec) 
Heartbeat CPU 0 instructions: 40000002 cycles: 13984627 heartbeat IPC: 2.85756 cumulative IPC: 2.86028 (Simulation time: 0 hr 1 min 14 sec) 
Heartbeat CPU 0 instructions: 50000001 cycles: 17480367 heartbeat IPC: 2.86062 cumulative IPC: 2.86035 (Simulation time: 0 hr 1 min 33 sec) 

Warmup complete CPU 0 instructions: 50000001 cycles: 17480367 (Simulation time: 0 hr 1 min 33 sec) 

Heartbeat CPU 0 instructions: 60000002 cycles: 32020542 heartbeat IPC: 0.68775 cumulative IPC: 0.68775 (Simulation time: 0 hr 1 min 50 sec) 
Heartbeat CPU 0 instructions: 70000000 cycles: 46550183 heartbeat IPC: 0.688248 cumulative IPC: 0.687999 (Simulation time: 0 hr 2 min 8 sec) 
Heartbeat CPU 0 instructions: 80000000 cycles: 61099739 heartbeat IPC: 0.687306 cumulative IPC: 0.687768 (Simulation time: 0 hr 2 min 26 sec) 
*** Reached end of trace for Core: 0 Repeating trace: /ChampSim-master-BTBX/dpc3_traces/server_028.champsimtrace.xz
Heartbeat CPU 0 instructions: 90000000 cycles: 75599821 heartbeat IPC: 0.689651 cumulative IPC: 0.688238 (Simulation time: 0 hr 2 min 43 sec) 
Heartbeat CPU 0 instructions: 100000003 cycles: 90078939 heartbeat IPC: 0.69065 cumulative IPC: 0.688719 (Simulation time: 0 hr 3 min 1 sec) 
Finished CPU 0 instructions: 50000002 cycles: 72598572 cumulative IPC: 0.688719 (Simulation time: 0 hr 3 min 1 sec) 

ChampSim completed all CPUs

Region of Interest Statistics

CPU 0
XXX cumulative-IPC 0.688719
XXX instructions 50000002
XXX cycles 72598572
L1D TOTAL     ACCESS:   21792953  HIT:   19714708  MISS:    2078245
L1D LOAD      ACCESS:    8021645  HIT:    6988960  MISS:    1032685
L1D RFO       ACCESS:    6227905  HIT:    5944791  MISS:     283114
L1D PREFETCH  ACCESS:    7543403  HIT:    6780957  MISS:     762446
L1D WRITEBACK ACCESS:          0  HIT:          0  MISS:          0
L1D PREFETCH  REQUESTED:    8090504  ISSUED:    8011568
XXX L1D-USEFUL 192307
XXX L1D-USELESS 570140
L1D AVERAGE MISS LATENCY: 22.7552 cycles
L1I TOTAL     ACCESS:   14138734  HIT:   10595890  MISS:    3542844
L1I LOAD      ACCESS:    9334014  HIT:    7435790  MISS:    1898224
L1I RFO       ACCESS:          0  HIT:          0  MISS:          0
L1I PREFETCH  ACCESS:    4804720  HIT:    3160100  MISS:    1644620
L1I WRITEBACK ACCESS:          0  HIT:          0  MISS:          0
L1I PREFETCH  REQUESTED:    7723247  ISSUED:    7723247
XXX L1I-USEFUL 1040920
XXX L1I-USELESS 603706
L1I AVERAGE MISS LATENCY: 13.4828 cycles
L2C TOTAL     ACCESS:    7986096  HIT:    6840750  MISS:    1145346
L2C LOAD      ACCESS:    1825508  HIT:    1504210  MISS:     321298
L2C RFO       ACCESS:     280811  HIT:     192204  MISS:      88607
L2C PREFETCH  ACCESS:    5274373  HIT:    4545239  MISS:     729134
L2C WRITEBACK ACCESS:     605404  HIT:     599097  MISS:       6307
L2C PREFETCH  REQUESTED:    5475796  ISSUED:    5475250
XXX L2C-USEFUL 49194
XXX L2C-USELESS 679141
L2C AVERAGE MISS LATENCY: 37.1694 cycles
LLC TOTAL     ACCESS:    2419038  HIT:    2357036  MISS:      62002
LLC LOAD      ACCESS:     320947  HIT:     304912  MISS:      16035
LLC RFO       ACCESS:      88607  HIT:      86643  MISS:       1964
LLC PREFETCH  ACCESS:    1856284  HIT:    1812549  MISS:      43735
LLC WRITEBACK ACCESS:     153200  HIT:     152932  MISS:        268
LLC PREFETCH  REQUESTED:          0  ISSUED:          0
XXX LLC-USEFUL 2111
XXX LLC-USELESS 41215
LLC AVERAGE MISS LATENCY: 152.223 cycles
Major fault: 0 Minor fault: 6043
XXX disp-0 2357225
XXX disp-1 0
XXX disp-2 1684
XXX disp-3 372546
XXX disp-4 1510538
XXX disp-5 1092990
XXX disp-6 1332738
XXX disp-7 713592
XXX disp-8 632786
XXX disp-9 369493
XXX disp-10 264771
XXX disp-11 240538
XXX disp-12 116687
XXX disp-13 154849
XXX disp-14 127554
XXX disp-15 164156
XXX disp-16 85457
XXX disp-17 44581
XXX disp-18 158116
XXX disp-19 97832
XXX disp-20 123461
XXX disp-21 296708
XXX disp-22 168698
XXX disp-23 425524
XXX disp-24 81703
XXX disp-25 0
XXX disp-26 0
XXX disp-27 0
XXX disp-28 0
XXX disp-29 0
XXX disp-30 0
XXX disp-31 0
XXX disp-32 0
XXX disp-33 0
XXX disp-34 0
XXX disp-35 0
XXX disp-36 0
XXX disp-37 0
XXX disp-38 0
XXX disp-39 0
XXX disp-40 0
XXX disp-41 0
XXX disp-42 0
XXX disp-43 0
XXX disp-44 0
XXX disp-45 0
XXX disp-46 236545
XXX disp-47 0
XXX disp-48 0
XXX disp-49 0
XXX disp-50 0
XXX disp-51 0
XXX disp-52 0
XXX disp-53 0
XXX disp-54 0
XXX disp-55 0
XXX disp-56 0
XXX disp-57 0
XXX disp-58 0
XXX disp-59 0
XXX disp-60 0
XXX disp-61 0
XXX disp-62 0
XXX disp-63 1
XXX disp-64 0
XXX disp-65 0
XXX diffBits-0 2357225
XXX diffBits-1 1603
XXX diffBits-2 155047
XXX diffBits-3 606843
XXX diffBits-4 1142207
XXX diffBits-5 1167861
XXX diffBits-6 865016
XXX diffBits-7 663322
XXX diffBits-8 482601
XXX diffBits-9 565124
XXX diffBits-10 422577
XXX diffBits-11 266395
XXX diffBits-12 205847
XXX diffBits-13 165324
XXX diffBits-14 85623
XXX diffBits-15 126563
XXX diffBits-16 139879
XXX diffBits-17 108666
XXX diffBits-18 69258
XXX diffBits-19 155171
XXX diffBits-20 246935
XXX diffBits-21 265153
XXX diffBits-22 481641
XXX diffBits-23 0
XXX diffBits-24 0
XXX diffBits-25 188346
XXX diffBits-26 0
XXX diffBits-27 0
XXX diffBits-28 0
XXX diffBits-29 0
XXX diffBits-30 0
XXX diffBits-31 0
XXX diffBits-32 0
XXX diffBits-33 0
XXX diffBits-34 0
XXX diffBits-35 0
XXX diffBits-36 0
XXX diffBits-37 0
XXX diffBits-38 0
XXX diffBits-39 0
XXX diffBits-40 0
XXX diffBits-41 0
XXX diffBits-42 0
XXX diffBits-43 0
XXX diffBits-44 0
XXX diffBits-45 236545
XXX diffBits-46 0
XXX diffBits-47 0
XXX diffBits-48 0
XXX diffBits-49 0
XXX diffBits-50 0
XXX diffBits-51 0
XXX diffBits-52 0
XXX diffBits-53 0
XXX diffBits-54 0
XXX diffBits-55 0
XXX diffBits-56 0
XXX diffBits-57 0
XXX diffBits-58 0
XXX diffBits-59 0
XXX diffBits-60 0
XXX diffBits-61 0
XXX diffBits-62 1
XXX diffBits-63 0
XXX diffBits-64 0
XXX diffBits-65 0
CPU 0 L1D next line prefetcher final stats

DRAM Statistics
 CHANNEL 0
 RQ ROW_BUFFER_HIT:      17738  ROW_BUFFER_MISS:      43996
 DBUS_CONGESTED:      24577
 WQ ROW_BUFFER_HIT:        319  ROW_BUFFER_MISS:       3080  FULL:          0

 AVG_CONGESTED_CYCLE: 4

CPU 0 Branch Prediction Accuracy: 81.4499% MPKI: 34.9077 Average ROB Occupancy at Mispredict: 39.4282

XXX total_mispredicts 1745383
XXX total_target_mispredicts1 1320897
XXX total_target_mispredicts2 258028
XXX total_direction_mispredicts 166458
XXX mispredict_on_btb_hit 609624
XXX NOT_BRANCH: 0
XXX BRANCH_DIRECT_JUMP: 16095
XXX BRANCH_INDIRECT: 17479
XXX BRANCH_CONDITIONAL: 0
XXX BRANCH_DIRECT_CALL: 20905
XXX BRANCH_INDIRECT_CALL: 12986
XXX BRANCH_RETURN: 542159
XXX BRANCH_OTHER: 0
Branch types
NOT_BRANCH: 40590793 81.1816%
BRANCH_DIRECT_JUMP: 523490 1.04698%
BRANCH_INDIRECT: 166997 0.333994%
BRANCH_CONDITIONAL: 6365171 12.7303%
BRANCH_DIRECT_CALL: 989490 1.97898%
BRANCH_INDIRECT_CALL: 187202 0.374404%
BRANCH_RETURN: 1176695 2.35339%
BRANCH_OTHER: 0 0%

XXX BTB_reads: 20926989
XXX BTB_writes: 956464
XXX PageBTB_reads: 0
XXX PageBTB_writes: 0
XXX PageBTB_readsBeforeWrite: 0
XXX RegionBTB_reads: 0
XXX RegionBTB_writes: 0
XXX RegionBTB_readsBeforeWrite: 0
XXX BTB_4D_Hits 922251
XXX BTB_6D_Hits 938551
XXX BTB_8D_Hits 720396
XXX BTB_12D_Hits 380280
XXX BTB_18D_Hits 258623
XXX BTB_25D_Hits 202908
XXX BTB_46D_Hits 70185
XXX BTB_Ret_Hits 1132069
XXX BTB_4D_Misses 27792
XXX BTB_6D_Misses 22243
XXX BTB_8D_Misses 90852
XXX BTB_12D_Misses 101321
XXX BTB_18D_Misses 78370
XXX BTB_25D_Misses 209712
XXX BTB_46D_Misses 381548
XXX BTB_Ret_Misses 44626
XXX Num_unique_branches 8501
total instructions: 0
wc,tif,trb
6331,27651,127180
259,1812,2921
180,1426,2930
334,3080,3868
12,27,169
15,94,59
3402,20923,43229
6338,22799,115125
3878,39921,45878
2779,28146,29777
3300,30992,32776
6988,31555,112693
15,93,180
1413,7206,26133
170,662,3486
12,24,124
4544,41248,56182
226,1986,2992
3594,12843,75940
8,34,46
3396,23132,56864
8,23,57
3052,19804,56370
3213,11236,68975
4594,18915,95753
2625,35121,15920
1832,13279,17367
3123,12604,65339
1531,6095,32045
4,9,32
8264,29685,151204
267,2615,2979
5680,57168,50780
188,186,4342
3225,15852,64479
402,3517,5263
3204,9642,70352
4559,18050,86875
3408,14341,66705
835,2028,18806
246,1477,4590
8,30,50
170,2043,2087
251,1233,4922
352,1080,5062
737,5240,5318
573,3094,5799
4664,14242,102238
3053,4587,71639
1523,10424,23822
49,365,650
10193,59260,119935
8479,48548,104021
145,363,3162
133,1108,1770
5189,28078,94975
3117,19820,57901
9,19,74
1962,8794,28641
174,418,3790
6,8,58
8516,34764,123727
6238,51577,80309
196,432,4239
88,427,1653
7725,46289,54740
351,1158,7513
182,1055,3451
4545,29732,52731
410,2345,5001
249,1391,4002
4573,41120,59387
3214,12675,66519
2715,10801,46619
1146,4009,24521
491,5029,3917
4801,15662,81594
386,2429,6116
3364,23527,56029
7473,41820,91187
3121,31731,43843
285,2105,3579
4649,17797,96526
9,88,31
7476,46466,118034
250,2102,2300
5,1,51
12846,53965,159374
12179,77757,99716
16,124,126
7969,64625,65055
6,7,60
3065,12384,64057
7,10,65
3395,16431,66205
5837,46431,78034
4005,15235,79020
748,4828,3964
7280,52217,105156
1898,8276,29502
6,3,61
5138,34148,78466
3050,4575,71575
11911,96297,63976
6,15,56
5,7,18
10676,79030,100873
1771,3149,12490
347,2362,6110
2849,26126,41655
4568,25307,88830
7939,60614,113787
1609,7939,32186
1938,12638,30700
14,102,80
14,37,97
174,930,2393
8862,73497,76889
169,1224,2901
13183,76756,86829
659,4975,7286
2412,25126,32238
3018,13570,61760
361,3234,4538
5,2,42
252,2605,2825
9,24,110
450,2858,7359
5993,31306,118420
166,2588,1378
606,4975,3991
8310,85398,41111
5754,81326,44772
2980,8689,65730
3,2,14
358,1323,7507
8,20,60
250,1146,2571
1425,13450,19217
131,385,2524
815,3526,12134
274,2302,2442
21,75,284
3216,6441,73827
57,623,299
4881,40156,64515
6,12,32
182,903,3433
815,5947,6438
1648,9472,31608
9311,54886,126997
13747,84133,136968
2,1,8
451,3932,4345
168,656,3444
3,5,27
2935,17637,53292
8,25,55
2998,15547,58285
187,2036,2407
290,2222,3284
7,10,61
365,2152,3811
5241,25984,86568
351,1715,5808
234,1456,4022
1777,13072,30237
8,15,65
253,2815,2630
265,1293,5046
333,3141,2886
3298,28144,51733
3817,29640,49841
4,18,44
168,657,3462
728,5894,4480
3050,7629,68521
165,1200,2821
4,6,28
6093,37596,91013
103,1036,827
297,2699,4613
2,1,6
10,27,91
1565,7868,14509
253,2957,2523
576,3858,4530
574,3776,6118
6080,25884,107857
7631,43744,128372
8,6,135
13383,77004,133459
3887,33374,53611
85,7,1573
7,19,50
10,8,64
549,4922,3423
9,25,93
7703,77919,42199
189,582,3827
11,35,120
3128,30236,47160
10,71,59
36,572,208
170,987,3170
256,2752,2729
10,23,79
14,61,133
118,1636,858
12446,101282,76287
6,11,39
13,64,161
345,1012,6647
591,4297,4053
1701,5124,37281
2161,16251,22978
7456,61910,47289
10,23,151
6,9,51
167,497,3612
254,2082,3022
5,11,18
8,20,60
3549,12214,73094
6,19,49
358,1815,4337
21,88,233
6095,25889,108108
2256,5634,50681
1327,10807,21594
168,980,3132
4,8,20
6574,59240,65348
3450,11317,71187
916,4303,16274
3158,10829,66549
1861,507,43956
3951,37680,49023
6,28,48
4809,9840,110297
9,40,85
5,5,63
182,746,3588
252,2944,2536
6634,48870,65758
6218,44234,69500
8133,47709,98023
11,80,141
4755,50914,49981
1856,10666,35630
169,499,2634
238,1504,2386
154,1157,2255
10713,50707,126032
5,14,50
3048,12050,64018
9281,50981,111369
4876,49735,54281
5,6,34
3049,4567,71560
3055,12214,64039
169,583,3528
89,422,1677
379,3011,4720
1955,12406,16346
3132,13716,64464
3,0,21
5561,16271,109058
2368,25102,26158
25,257,128
5,12,30
3208,12101,67721
1532,16884,21278
7,10,63
3435,17620,63785
1058,13278,11926
3060,10731,65652
765,4339,6300
512,4047,5997
4750,20192,97099
3389,8811,58330
13,123,64
59,595,466
3053,6102,70129
4,6,32
6,39,36
11936,52160,138618
3296,22572,56042
13611,45426,156447
922,6328,4667
3461,23207,58508
9,54,35
12,77,79
4306,23917,49832
299,2226,4659
7,28,33
3157,30431,37914
18,95,159
96,323,1957
108,732,1085
8,41,39
3050,16745,59403
49,440,409
748,5245,8223
2704,7836,59164
7096,53435,62863
8,38,42
189,770,3842
7,25,46
24,127,209
409,2956,4041
69,556,677
1623,8017,32499
720,3800,10670
183,2188,2106
27,183,360
4816,30220,88062
4788,43613,48286
6071,29220,112920
3117,15436,61511
8617,74271,80792
196,895,3745
15394,109032,86862
13516,83469,110670
3457,7549,76880
4,13,38
964,9348,4920
342,1391,6873
2242,8953,46997
18,110,168
15729,97407,152815
6184,49073,85620
5913,34044,95913
2540,22134,39966
4161,21224,65684
3711,11360,75935
6013,45745,87192
334,1326,5948
333,3552,2475
4154,38720,54954
468,1084,8872
7977,52824,122783
10976,78915,85864
461,2162,6045
3283,13216,67387
3443,11977,70570
4559,23734,66680
4647,20060,95827
3622,25059,61833
3972,20371,78809
3306,40367,36895
6290,36479,99401
6,9,57
407,2909,4929
15041,68988,118149
9264,29698,134213
7130,66540,63762
2510,19940,22974
2467,9201,51364
310,2044,2858
3268,26579,50940
330,1475,5713
18,121,181
560,2552,6748
7865,43534,131025
10524,84339,65896
293,807,5402
61,388,1063
3623,7375,76568
2932,18699,42445
3958,19244,77862
2949,24682,47345
1998,16471,24840
7,37,56
949,8005,7454
19,152,121
2493,13563,47288
424,2974,5092
6419,41196,79199
3188,18585,58987
10514,65875,104923
488,3968,5724
7416,34785,120224
5,10,47
925,5356,8632
7,16,53
7,16,94
5292,30121,81958
3402,17855,65941
3169,10000,68293
5059,13352,101335
10108,54362,145237
340,2086,3653
17140,98007,132208
3339,12509,67782
6421,18886,118269
1854,24655,9117
15635,98590,77633
3049,16750,59392
2910,26944,43635
5315,37891,59041
13885,52105,198824
8120,60368,86124
22,160,270
3061,14479,60968
4861,18179,100814
175,1449,2800
1218,4445,25069
15431,85631,140468
8,29,51
355,3561,3938
3158,29173,47577
8292,60347,118091
11983,57474,120797
13066,62630,129151
809,4103,13502
441,4213,2589
238,1810,3300
17,110,142
3598,12439,73421
5,7,33
686,5483,3605
706,6599,5677
9739,67560,85686
1636,11062,29112
12,88,108
2315,20183,36094
8,10,70
5435,48409,62192
5,5,51
6,11,57
4506,51773,45275
265,2035,3078
205,1303,2152
3607,33193,51368
5,13,47
193,1237,3186
3269,10262,70909
4362,23775,68751
6260,52229,84581
7900,55909,88736
9702,68586,80441
4594,44820,54472
1165,5211,16439
11824,58632,151383
6576,29415,133003
2663,15319,50148
5190,27230,88889
19,99,186
11281,55645,122626
9761,53162,122357
3614,28433,57542
4683,13267,103660
2442,19145,41215
169,261,3860
4842,49878,52401
1694,4861,35970
5455,53937,56652
6984,50918,77430
17811,92920,195651
6613,21210,84905
6,15,39
4449,29626,68121
5737,13256,116217
22611,125091,177644
2,4,0
3286,7132,74946
2221,3592,46661
29,212,409
1207,10031,15861
408,2707,1505
3054,12209,64021
9029,58531,105880
1459,6035,29617
261,2081,2442
4764,31099,71021
3082,9376,67386
17339,107006,160235
10997,85918,73320
356,1514,7266
7745,40080,134861
7,9,67
3265,29311,49019
18545,114585,101100
5342,29888,80658
328,1416,5279
488,4802,2879
4213,14963,90273
7,15,95
6285,43179,91748
7824,45504,89874
13,88,99
4374,27390,68800
9471,50873,123212
3213,15424,64850
338,3260,4125
3331,17111,52392
173,594,3651
3185,5060,74445
1659,16095,24272
168,415,3689
270,1720,2314
3663,23469,62882
302,2880,4332
11,48,89
51,191,974
3304,21247,60123
255,1823,4430
6541,47577,90518
3916,30329,62508
11917,48122,141124
2314,19442,36013
