Initialize SIGNATURE TABLE
ST_SET: 1
ST_WAY: 256
ST_TAG_BIT: 16
ST_TAG_MASK: ffff

Initialize PATTERN TABLE
PT_SET: 512
PT_WAY: 4
SIG_DELTA_BIT: 7
C_SIG_BIT: 4
C_DELTA_BIT: 4

Initialize PREFETCH FILTER
FILTER_SET: 1024

*** ChampSim Multicore Out-of-Order Simulator ***

Warmup Instructions: 50000000
Simulation Instructions: 50000000
Number of CPUs: 1
LLC sets: 2048
LLC ways: 16
Off-chip DRAM Size: 4096 MB Channels: 1 Width: 64-bit Data Rate: 3200 MT/s

CPU 0 runs /ChampSim-master-BTBX/dpc3_traces/server_011.champsimtrace.xz
Basic BTB sets: 4096 ways: 4 indirect buffer size: 4096 RAS size: 64
CPU 0 L1D next line prefetcher
Heartbeat CPU 0 instructions: 10000002 cycles: 3201343 heartbeat IPC: 3.12369 cumulative IPC: 3.12369 (Simulation time: 0 hr 0 min 18 sec) 
Heartbeat CPU 0 instructions: 20000001 cycles: 6407729 heartbeat IPC: 3.11878 cumulative IPC: 3.12123 (Simulation time: 0 hr 0 min 35 sec) 
Heartbeat CPU 0 instructions: 30000001 cycles: 9658045 heartbeat IPC: 3.07662 cumulative IPC: 3.10622 (Simulation time: 0 hr 0 min 54 sec) 
Heartbeat CPU 0 instructions: 40000003 cycles: 12856178 heartbeat IPC: 3.12682 cumulative IPC: 3.11134 (Simulation time: 0 hr 1 min 11 sec) 
Heartbeat CPU 0 instructions: 50000000 cycles: 16061147 heartbeat IPC: 3.12015 cumulative IPC: 3.1131 (Simulation time: 0 hr 1 min 31 sec) 

Warmup complete CPU 0 instructions: 50000004 cycles: 16061148 (Simulation time: 0 hr 1 min 31 sec) 

Heartbeat CPU 0 instructions: 60000002 cycles: 28424606 heartbeat IPC: 0.808835 cumulative IPC: 0.808835 (Simulation time: 0 hr 1 min 48 sec) 
Heartbeat CPU 0 instructions: 70000001 cycles: 41156243 heartbeat IPC: 0.785445 cumulative IPC: 0.796968 (Simulation time: 0 hr 2 min 6 sec) 
Heartbeat CPU 0 instructions: 80000001 cycles: 53313828 heartbeat IPC: 0.822532 cumulative IPC: 0.805311 (Simulation time: 0 hr 2 min 24 sec) 
Heartbeat CPU 0 instructions: 90000001 cycles: 65744179 heartbeat IPC: 0.804483 cumulative IPC: 0.805104 (Simulation time: 0 hr 2 min 43 sec) 
Heartbeat CPU 0 instructions: 100000001 cycles: 78040802 heartbeat IPC: 0.813231 cumulative IPC: 0.806716 (Simulation time: 0 hr 3 min 1 sec) 
Finished CPU 0 instructions: 50000001 cycles: 61979655 cumulative IPC: 0.806716 (Simulation time: 0 hr 3 min 1 sec) 

ChampSim completed all CPUs

Region of Interest Statistics

CPU 0
XXX cumulative-IPC 0.806716
XXX instructions 50000001
XXX cycles 61979655
L1D TOTAL     ACCESS:   19165741  HIT:   18133035  MISS:    1032706
L1D LOAD      ACCESS:    7238496  HIT:    6767618  MISS:     470878
L1D RFO       ACCESS:    4905953  HIT:    4823894  MISS:      82059
L1D PREFETCH  ACCESS:    7021292  HIT:    6541523  MISS:     479769
L1D WRITEBACK ACCESS:          0  HIT:          0  MISS:          0
L1D PREFETCH  REQUESTED:    7278975  ISSUED:    7182643
XXX L1D-USEFUL 148823
XXX L1D-USELESS 330942
L1D AVERAGE MISS LATENCY: 39.7112 cycles
L1I TOTAL     ACCESS:   13457641  HIT:   12022452  MISS:    1435189
L1I LOAD      ACCESS:    8806502  HIT:    7940606  MISS:     865896
L1I RFO       ACCESS:          0  HIT:          0  MISS:          0
L1I PREFETCH  ACCESS:    4651139  HIT:    4081846  MISS:     569293
L1I WRITEBACK ACCESS:          0  HIT:          0  MISS:          0
L1I PREFETCH  REQUESTED:    6221174  ISSUED:    6221174
XXX L1I-USEFUL 362347
XXX L1I-USELESS 206923
L1I AVERAGE MISS LATENCY: 18.0069 cycles
L2C TOTAL     ACCESS:    3340538  HIT:    2157254  MISS:    1183284
L2C LOAD      ACCESS:     812073  HIT:     535779  MISS:     276294
L2C RFO       ACCESS:      80467  HIT:      34284  MISS:      46183
L2C PREFETCH  ACCESS:    2179758  HIT:    1320207  MISS:     859551
L2C WRITEBACK ACCESS:     268240  HIT:     266984  MISS:       1256
L2C PREFETCH  REQUESTED:    2457099  ISSUED:    2456995
XXX L2C-USEFUL 98256
XXX L2C-USELESS 759644
L2C AVERAGE MISS LATENCY: 47.8285 cycles
LLC TOTAL     ACCESS:    2118495  HIT:    1924571  MISS:     193924
LLC LOAD      ACCESS:     276080  HIT:     252742  MISS:      23338
LLC RFO       ACCESS:      46179  HIT:      32371  MISS:      13808
LLC PREFETCH  ACCESS:    1643733  HIT:    1487332  MISS:     156401
LLC WRITEBACK ACCESS:     152503  HIT:     152126  MISS:        377
LLC PREFETCH  REQUESTED:          0  ISSUED:          0
XXX LLC-USEFUL 19080
XXX LLC-USELESS 132373
LLC AVERAGE MISS LATENCY: 164.124 cycles
Major fault: 0 Minor fault: 6977
XXX disp-0 1749526
XXX disp-1 0
XXX disp-2 612
XXX disp-3 1055906
XXX disp-4 848342
XXX disp-5 636846
XXX disp-6 666966
XXX disp-7 671066
XXX disp-8 407210
XXX disp-9 269840
XXX disp-10 229435
XXX disp-11 123083
XXX disp-12 80859
XXX disp-13 56640
XXX disp-14 84561
XXX disp-15 98833
XXX disp-16 45796
XXX disp-17 67953
XXX disp-18 125282
XXX disp-19 111648
XXX disp-20 256482
XXX disp-21 202075
XXX disp-22 247374
XXX disp-23 141613
XXX disp-24 52772
XXX disp-25 84113
XXX disp-26 25158
XXX disp-27 486
XXX disp-28 24878
XXX disp-29 0
XXX disp-30 0
XXX disp-31 0
XXX disp-32 0
XXX disp-33 0
XXX disp-34 0
XXX disp-35 0
XXX disp-36 0
XXX disp-37 0
XXX disp-38 0
XXX disp-39 0
XXX disp-40 0
XXX disp-41 0
XXX disp-42 0
XXX disp-43 0
XXX disp-44 0
XXX disp-45 0
XXX disp-46 0
XXX disp-47 0
XXX disp-48 0
XXX disp-49 0
XXX disp-50 0
XXX disp-51 0
XXX disp-52 0
XXX disp-53 0
XXX disp-54 0
XXX disp-55 0
XXX disp-56 0
XXX disp-57 0
XXX disp-58 0
XXX disp-59 0
XXX disp-60 0
XXX disp-61 0
XXX disp-62 0
XXX disp-63 9
XXX disp-64 0
XXX disp-65 0
XXX diffBits-0 1749526
XXX diffBits-1 271
XXX diffBits-2 279832
XXX diffBits-3 547098
XXX diffBits-4 869346
XXX diffBits-5 724898
XXX diffBits-6 535271
XXX diffBits-7 570646
XXX diffBits-8 389177
XXX diffBits-9 522619
XXX diffBits-10 189350
XXX diffBits-11 113232
XXX diffBits-12 148287
XXX diffBits-13 125629
XXX diffBits-14 71840
XXX diffBits-15 65935
XXX diffBits-16 114437
XXX diffBits-17 66182
XXX diffBits-18 77718
XXX diffBits-19 232649
XXX diffBits-20 225304
XXX diffBits-21 168426
XXX diffBits-22 213535
XXX diffBits-23 229512
XXX diffBits-24 0
XXX diffBits-25 109271
XXX diffBits-26 0
XXX diffBits-27 25364
XXX diffBits-28 0
XXX diffBits-29 0
XXX diffBits-30 0
XXX diffBits-31 0
XXX diffBits-32 0
XXX diffBits-33 0
XXX diffBits-34 0
XXX diffBits-35 0
XXX diffBits-36 0
XXX diffBits-37 0
XXX diffBits-38 0
XXX diffBits-39 0
XXX diffBits-40 0
XXX diffBits-41 0
XXX diffBits-42 0
XXX diffBits-43 0
XXX diffBits-44 0
XXX diffBits-45 0
XXX diffBits-46 0
XXX diffBits-47 0
XXX diffBits-48 0
XXX diffBits-49 0
XXX diffBits-50 0
XXX diffBits-51 0
XXX diffBits-52 0
XXX diffBits-53 0
XXX diffBits-54 0
XXX diffBits-55 0
XXX diffBits-56 0
XXX diffBits-57 0
XXX diffBits-58 0
XXX diffBits-59 0
XXX diffBits-60 0
XXX diffBits-61 0
XXX diffBits-62 9
XXX diffBits-63 0
XXX diffBits-64 0
XXX diffBits-65 0
CPU 0 L1D next line prefetcher final stats

DRAM Statistics
 CHANNEL 0
 RQ ROW_BUFFER_HIT:      35577  ROW_BUFFER_MISS:     157960
 DBUS_CONGESTED:      71167
 WQ ROW_BUFFER_HIT:      12099  ROW_BUFFER_MISS:      50814  FULL:          0

 AVG_CONGESTED_CYCLE: 5

CPU 0 Branch Prediction Accuracy: 89.4537% MPKI: 19.8112 Average ROB Occupancy at Mispredict: 46.691

XXX total_mispredicts 990558
XXX total_target_mispredicts1 574375
XXX total_target_mispredicts2 207741
XXX total_direction_mispredicts 208442
XXX mispredict_on_btb_hit 338097
XXX NOT_BRANCH: 0
XXX BRANCH_DIRECT_JUMP: 4808
XXX BRANCH_INDIRECT: 26027
XXX BRANCH_CONDITIONAL: 0
XXX BRANCH_DIRECT_CALL: 3564
XXX BRANCH_INDIRECT_CALL: 29448
XXX BRANCH_RETURN: 274250
XXX BRANCH_OTHER: 0
Branch types
NOT_BRANCH: 40607204 81.2144%
BRANCH_DIRECT_JUMP: 451602 0.903204%
BRANCH_INDIRECT: 151580 0.30316%
BRANCH_CONDITIONAL: 7041636 14.0833%
BRANCH_DIRECT_CALL: 647828 1.29566%
BRANCH_INDIRECT_CALL: 211373 0.422746%
BRANCH_RETURN: 888440 1.77688%
BRANCH_OTHER: 0 0%

XXX BTB_reads: 12512762
XXX BTB_writes: 437969
XXX PageBTB_reads: 0
XXX PageBTB_writes: 0
XXX PageBTB_readsBeforeWrite: 0
XXX RegionBTB_reads: 0
XXX RegionBTB_writes: 0
XXX RegionBTB_readsBeforeWrite: 0
XXX BTB_4D_Hits 760263
XXX BTB_6D_Hits 604928
XXX BTB_8D_Hits 719228
XXX BTB_12D_Hits 247740
XXX BTB_18D_Hits 350507
XXX BTB_25D_Hits 314628
XXX BTB_46D_Hits 10640
XXX BTB_Ret_Hits 851568
XXX BTB_4D_Misses 88353
XXX BTB_6D_Misses 25127
XXX BTB_8D_Misses 53383
XXX BTB_12D_Misses 44765
XXX BTB_18D_Misses 30968
XXX BTB_25D_Misses 68736
XXX BTB_46D_Misses 89765
XXX BTB_Ret_Misses 36872
XXX Num_unique_branches 45294
total instructions: 0
wc,tif,trb
1011,5220,14405
2465,15049,16824
1808,15078,9800
1747,9329,18268
443,3026,4889
659,4346,6020
3326,17779,27002
588,3651,4665
732,4834,8074
1405,8549,8815
1391,9004,9572
1407,7202,18383
3346,24750,18068
227,1527,2310
1408,6298,18768
752,5079,6383
2739,15834,20127
505,3346,3576
1765,10242,16947
1333,7086,11109
485,3312,3431
1346,7070,13191
2019,13124,13534
402,2682,3797
1639,9869,12192
329,2105,3414
1506,8881,12369
1695,10636,12513
2027,13490,15443
1176,6620,9181
1528,10011,15643
915,7430,7010
1801,9300,19490
1256,8664,11363
495,2627,7960
1499,12330,5360
1746,10095,13914
1530,10811,9331
457,2431,7660
3455,17859,26533
1414,8849,11493
262,1868,3775
1023,8278,4712
536,3178,6578
2727,11713,21544
2244,12375,22175
955,4974,8521
2106,11987,21294
1843,12675,10190
2458,15573,15564
1606,9653,10958
2806,17436,20631
578,4046,8176
1043,4876,13578
374,1493,6708
2121,12346,18415
1960,11287,15229
822,3957,10637
524,3896,4899
2517,15481,20027
2023,8682,20058
2473,15232,17065
2048,12418,18504
2349,10899,26795
1676,10791,15627
1654,14303,6763
1898,10102,21011
1350,7541,9021
350,1733,5033
1881,11585,16129
1981,11263,12358
1114,7814,7112
1608,8665,17191
1985,15589,8582
1711,8512,16461
483,3125,5380
356,1952,4285
627,2864,9372
1664,11026,10621
1253,6209,13302
1504,10725,11896
1632,8747,12891
1071,7061,10647
2684,15535,21089
3718,21249,25420
698,4215,11725
1181,4984,17995
895,6603,11869
1407,7872,14617
2317,11112,22131
1470,7454,16568
1145,5670,14814
2695,17545,16877
2346,13308,21919
1849,11671,19539
1780,11451,13956
1398,7472,18943
1290,7550,10567
2082,13932,13656
686,2720,13015
2374,13190,16666
1550,7714,16236
1196,7162,9878
1342,8536,10225
2673,14423,18128
1119,5234,15103
1537,9752,12505
404,1888,5393
517,2747,8824
1475,7922,12478
1344,6546,15406
1622,11196,11599
1324,7969,13120
2666,13598,27633
1170,6555,12531
1498,8572,15659
1411,7535,16921
2286,15829,15340
2242,11833,16999
1003,4374,12037
861,7421,4753
2154,13407,15332
1678,8460,23523
2414,17514,17862
1538,9396,18654
2380,14028,21363
889,4902,11249
2474,13165,26943
2321,13857,15828
2175,15151,13295
957,5256,14344
1706,8466,14081
2754,14481,25577
1611,8736,13244
841,5591,8410
2927,21463,21392
1652,14705,6823
735,3866,9551
1547,8861,17085
1626,8180,12815
430,2111,6163
907,5581,8465
2139,10198,24840
924,4778,12854
1827,12020,8626
2012,11829,14695
628,2850,9057
1877,11953,11635
1987,12962,13208
2922,21422,19674
763,3590,10902
1118,5675,13751
1048,5450,9714
2195,15504,10519
1498,7711,19029
3337,14766,27740
1460,8017,16771
498,3078,4742
2572,12154,29654
1519,7640,15293
2314,15417,13839
1297,6700,17416
2517,14746,19465
2833,18848,17909
3191,17013,24435
467,2578,7292
2133,14975,16228
2620,9496,22405
1606,11777,13515
1125,6260,12078
2025,10455,22552
2224,14638,16391
1439,7384,17039
1466,7007,21807
1016,4693,11546
1866,10892,17053
1869,12093,9264
2523,13805,26688
609,2412,10918
1141,5649,12997
2057,8245,20779
944,6471,13070
1152,6149,12507
2268,9214,20076
1534,10660,14617
2073,10585,20686
2649,17102,15147
1304,7006,11774
1643,13093,10222
1451,5738,20412
1024,7528,8034
1065,4285,17376
1642,9521,13295
2138,10277,21014
899,5920,8141
2558,12871,22210
846,4288,10995
1137,3919,15497
494,3136,4915
1359,6552,15761
1086,6276,12263
1678,11036,13843
1316,6590,14387
2838,14850,22060
1688,8578,21354
2168,12634,19230
1036,5676,14997
1680,7406,14517
1215,9822,10962
1241,7051,13164
1040,5666,7894
1421,6938,13431
1604,9293,10712
2291,10497,17098
2316,11087,23448
2428,9577,27700
2933,18449,22015
1693,11050,24358
1797,9426,22579
1442,7088,22030
712,3613,9246
2888,20429,17190
1463,6222,14636
3590,21352,29612
2407,15093,17794
1940,13912,10928
575,4360,6211
2474,13093,17211
3751,27477,19193
1516,9702,14252
982,6706,7455
1192,4905,15350
1467,11020,6695
1735,9339,18836
2049,10967,25026
3500,19705,38557
963,5703,7794
3347,16991,35735
1847,11077,16291
2619,19319,19533
380,2391,3973
2755,12736,23861
1235,7634,11212
2754,14543,24152
2398,11005,24189
1185,3769,21304
1353,7910,14602
1961,11065,15129
862,5973,7180
2670,16583,15402
2372,13963,15970
2099,8106,20952
1013,5592,15920
1542,10493,6672
1284,6580,14669
3145,17117,39663
2220,10662,16599
1336,8930,10410
2300,16399,13265
564,4334,3556
799,3061,14099
2749,12895,22976
2286,12138,19224
1093,8329,5843
1776,13633,8982
862,5007,5997
850,4798,10684
447,1966,8033
651,3181,7458
1008,4484,11701
2047,12095,15764
1157,5089,10275
2828,19929,13948
1947,9840,16637
1496,7921,14773
2817,16315,18216
1872,10649,20581
2425,13683,21637
2962,13631,21314
2295,9499,23880
542,3180,8469
1405,8814,11129
785,4531,11408
3860,21038,25513
1834,13568,11445
1040,4618,9807
1740,11327,14435
865,4525,9937
965,6637,8343
3134,18104,30013
353,1871,4824
2079,12242,14554
1347,7142,11133
1899,7950,21444
2700,13381,23588
2178,12232,20430
1118,5973,12118
2142,15409,10453
1142,4659,12579
1831,8672,25771
2809,18971,15988
1449,8467,12648
1565,8139,16610
2909,15739,21376
1058,4290,15634
1318,8159,9866
1133,5244,18326
3981,25494,20322
1723,9164,16695
2288,9170,25428
1315,7038,16450
2919,14908,25741
2034,11304,15205
781,4427,10642
751,4342,9440
2196,9281,28840
1743,9436,15129
2117,7950,23597
2512,14241,23860
2394,14083,18749
1786,11325,12628
1020,6388,8416
3735,26047,19482
3274,20312,22608
1178,5432,11375
495,2453,5731
1580,9591,15374
667,3459,8183
1110,4536,14444
2168,12388,14368
1588,10219,13068
2687,14737,23126
923,4626,11357
2596,14054,24058
2702,15455,21518
630,3908,6530
808,4161,13040
1734,8798,19259
1744,11835,13224
560,4043,3608
757,4775,6792
1742,7558,17345
2295,10420,17838
2811,15088,20618
3300,19600,22546
1706,9505,14089
3500,12665,38276
2543,21516,12266
2736,16140,21897
2355,15897,17524
1954,12942,16713
1608,9102,16850
1358,6228,16989
1549,9058,21403
640,2417,8926
2277,15130,13562
564,2443,9106
937,5818,11340
1761,8517,15466
1338,5996,11581
448,2259,4561
2209,12945,17178
2345,10008,25546
1426,8350,13671
920,3924,11578
2177,10463,21786
1680,9588,11118
2027,14703,12624
299,2194,3357
3199,16622,24564
1073,7073,8260
3943,21764,36468
1837,10914,13105
2073,12514,15039
1089,6210,16732
1751,9829,16628
1916,12709,10422
2487,17885,14385
1657,9892,13328
1839,11249,13805
1640,9301,14318
1939,11215,15185
338,1845,3822
1975,12371,16679
658,3594,6902
1156,7103,13109
2347,13317,17533
1341,7806,13577
1602,9186,13769
1711,8077,19364
1245,6552,14761
1926,9998,14347
935,5571,11741
1704,13047,11986
1420,8057,13768
439,1352,8195
893,6290,6608
1154,8146,9564
1285,8692,16863
1908,7006,22271
1559,9445,14796
2444,16623,14411
1225,7750,13506
2270,12982,15919
2041,11474,22139
1355,8639,13706
1761,9922,28658
1532,7861,25690
1727,10322,17997
2331,12377,21410
1395,7985,15486
1654,7769,22764
1773,9980,18862
2198,11449,25640
2717,15057,29393
1544,7713,16366
1214,4566,13327
1914,8037,24865
2105,11459,16391
990,5018,14532
372,2299,3962
635,5000,3955
1647,11072,8555
3216,15155,30360
1884,10506,17703
1192,5695,16202
1381,6579,15091
4264,20827,46324
2796,14689,25261
1934,13033,19276
1212,6534,15151
1392,6364,12101
2853,17023,17586
1379,8009,16330
2066,11447,21106
3210,13639,34177
1618,8640,14383
2186,16626,10374
909,4340,12579
1099,4155,11052
1629,7547,16888
1473,8469,16617
1481,8768,14946
2123,11603,16253
713,4892,7875
2124,14039,14767
1209,6004,14265
1907,13098,17442
2054,17286,11217
2510,16849,14737
2381,10541,20275
2501,13193,28415
696,2949,8625
2276,13280,17995
1324,7942,9520
1838,11379,11392
2021,11662,20178
649,4137,4527
459,2153,6892
1891,10620,16742
2234,11012,27522
2150,8721,29603
3574,27035,19795
2031,11993,19793
1845,10147,19004
2404,10501,27277
2101,13344,15890
2818,15767,25478
1449,9083,12740
3008,14887,32563
1726,8417,16515
678,4939,5944
2333,10575,26173
1666,9624,17321
2319,13438,33249
981,5515,11844
1118,5120,13039
2920,17647,21337
1645,9561,14142
716,4436,7056
2420,14926,15218
1360,7615,17524
918,8453,6480
3279,20631,23198
1337,7949,13762
992,5378,12943
2605,13281,26371
1609,6315,21734
1512,10840,13707
465,2245,4317
577,3118,7261
1458,8919,14326
273,1618,3463
2635,10857,32330
1299,6357,12915
2457,9739,26906
1807,11053,23385
481,3261,4864
4574,26281,38236
2217,14639,15629
776,5792,6036
1219,6142,15729
2888,16191,25676
1231,5281,15430
2094,13562,16039
811,3478,11507
2010,9117,22471
1299,7820,12247
597,3472,7560
2228,11739,19416
1606,12248,19328
1655,11380,19210
