Initialize SIGNATURE TABLE
ST_SET: 1
ST_WAY: 256
ST_TAG_BIT: 16
ST_TAG_MASK: ffff

Initialize PATTERN TABLE
PT_SET: 512
PT_WAY: 4
SIG_DELTA_BIT: 7
C_SIG_BIT: 4
C_DELTA_BIT: 4

Initialize PREFETCH FILTER
FILTER_SET: 1024

*** ChampSim Multicore Out-of-Order Simulator ***

Warmup Instructions: 50000000
Simulation Instructions: 50000000
Number of CPUs: 1
LLC sets: 2048
LLC ways: 16
Off-chip DRAM Size: 4096 MB Channels: 1 Width: 64-bit Data Rate: 3200 MT/s

CPU 0 runs /ChampSim-master-BTBX/dpc3_traces/server_010.champsimtrace.xz
Basic BTB sets: 4096 ways: 4 indirect buffer size: 4096 RAS size: 64
CPU 0 L1D next line prefetcher
Heartbeat CPU 0 instructions: 10000000 cycles: 3193580 heartbeat IPC: 3.13128 cumulative IPC: 3.13128 (Simulation time: 0 hr 0 min 18 sec) 
Heartbeat CPU 0 instructions: 20000002 cycles: 6383879 heartbeat IPC: 3.1345 cumulative IPC: 3.13289 (Simulation time: 0 hr 0 min 37 sec) 
Heartbeat CPU 0 instructions: 30000001 cycles: 9577502 heartbeat IPC: 3.13124 cumulative IPC: 3.13234 (Simulation time: 0 hr 0 min 54 sec) 
Heartbeat CPU 0 instructions: 40000000 cycles: 12767683 heartbeat IPC: 3.13462 cumulative IPC: 3.13291 (Simulation time: 0 hr 1 min 12 sec) 
Heartbeat CPU 0 instructions: 50000003 cycles: 15962926 heartbeat IPC: 3.12965 cumulative IPC: 3.13226 (Simulation time: 0 hr 1 min 33 sec) 

Warmup complete CPU 0 instructions: 50000003 cycles: 15962926 (Simulation time: 0 hr 1 min 33 sec) 

Heartbeat CPU 0 instructions: 60000001 cycles: 27793634 heartbeat IPC: 0.845258 cumulative IPC: 0.845258 (Simulation time: 0 hr 1 min 51 sec) 
Heartbeat CPU 0 instructions: 70000000 cycles: 39831652 heartbeat IPC: 0.830701 cumulative IPC: 0.837916 (Simulation time: 0 hr 2 min 8 sec) 
Heartbeat CPU 0 instructions: 80000001 cycles: 52094218 heartbeat IPC: 0.81549 cumulative IPC: 0.830305 (Simulation time: 0 hr 2 min 26 sec) 
Heartbeat CPU 0 instructions: 90000002 cycles: 63882231 heartbeat IPC: 0.848319 cumulative IPC: 0.834737 (Simulation time: 0 hr 2 min 44 sec) 
Heartbeat CPU 0 instructions: 100000000 cycles: 89928895 heartbeat IPC: 0.383926 cumulative IPC: 0.675987 (Simulation time: 0 hr 3 min 12 sec) 
Finished CPU 0 instructions: 50000001 cycles: 73965990 cumulative IPC: 0.675986 (Simulation time: 0 hr 3 min 12 sec) 

ChampSim completed all CPUs

Region of Interest Statistics

CPU 0
XXX cumulative-IPC 0.675986
XXX instructions 50000001
XXX cycles 73965990
L1D TOTAL     ACCESS:   20940209  HIT:   17712613  MISS:    3227596
L1D LOAD      ACCESS:    8176891  HIT:    6593753  MISS:    1583138
L1D RFO       ACCESS:    4789521  HIT:    4694583  MISS:      94938
L1D PREFETCH  ACCESS:    7973797  HIT:    6424277  MISS:    1549520
L1D WRITEBACK ACCESS:          0  HIT:          0  MISS:          0
L1D PREFETCH  REQUESTED:    8213060  ISSUED:    8113426
XXX L1D-USEFUL 128032
XXX L1D-USELESS 1421459
L1D AVERAGE MISS LATENCY: 22.3797 cycles
L1I TOTAL     ACCESS:   14402389  HIT:   13018823  MISS:    1383566
L1I LOAD      ACCESS:    9694686  HIT:    8844938  MISS:     849748
L1I RFO       ACCESS:          0  HIT:          0  MISS:          0
L1I PREFETCH  ACCESS:    4707703  HIT:    4173885  MISS:     533818
L1I WRITEBACK ACCESS:          0  HIT:          0  MISS:          0
L1I PREFETCH  REQUESTED:    6264645  ISSUED:    6264645
XXX L1I-USEFUL 331487
XXX L1I-USELESS 202313
L1I AVERAGE MISS LATENCY: 17.3953 cycles
L2C TOTAL     ACCESS:    5974225  HIT:    4782400  MISS:    1191825
L2C LOAD      ACCESS:    1909013  HIT:    1630447  MISS:     278566
L2C RFO       ACCESS:      94054  HIT:      49573  MISS:      44481
L2C PREFETCH  ACCESS:    3705737  HIT:    2837951  MISS:     867786
L2C WRITEBACK ACCESS:     265421  HIT:     264429  MISS:        992
L2C PREFETCH  REQUESTED:    5375046  ISSUED:    5374967
XXX L2C-USEFUL 92742
XXX L2C-USELESS 774153
L2C AVERAGE MISS LATENCY: 43.3176 cycles
LLC TOTAL     ACCESS:    2378995  HIT:    2234039  MISS:     144956
LLC LOAD      ACCESS:     278369  HIT:     260778  MISS:      17591
LLC RFO       ACCESS:      44479  HIT:      35083  MISS:       9396
LLC PREFETCH  ACCESS:    1906941  HIT:    1789204  MISS:     117737
LLC WRITEBACK ACCESS:     149206  HIT:     148974  MISS:        232
LLC PREFETCH  REQUESTED:          0  ISSUED:          0
XXX LLC-USEFUL 12098
XXX LLC-USELESS 103964
LLC AVERAGE MISS LATENCY: 164.158 cycles
Major fault: 0 Minor fault: 5599
XXX disp-0 1767731
XXX disp-1 0
XXX disp-2 376
XXX disp-3 1013385
XXX disp-4 1344965
XXX disp-5 583142
XXX disp-6 573665
XXX disp-7 616964
XXX disp-8 378662
XXX disp-9 249690
XXX disp-10 241507
XXX disp-11 130920
XXX disp-12 71776
XXX disp-13 53625
XXX disp-14 61845
XXX disp-15 108711
XXX disp-16 42527
XXX disp-17 69490
XXX disp-18 153234
XXX disp-19 114803
XXX disp-20 252850
XXX disp-21 203557
XXX disp-22 187793
XXX disp-23 160994
XXX disp-24 52503
XXX disp-25 78544
XXX disp-26 31350
XXX disp-27 485
XXX disp-28 24925
XXX disp-29 0
XXX disp-30 0
XXX disp-31 0
XXX disp-32 0
XXX disp-33 0
XXX disp-34 0
XXX disp-35 0
XXX disp-36 0
XXX disp-37 0
XXX disp-38 0
XXX disp-39 0
XXX disp-40 0
XXX disp-41 0
XXX disp-42 0
XXX disp-43 0
XXX disp-44 0
XXX disp-45 0
XXX disp-46 0
XXX disp-47 0
XXX disp-48 0
XXX disp-49 0
XXX disp-50 0
XXX disp-51 0
XXX disp-52 0
XXX disp-53 0
XXX disp-54 0
XXX disp-55 0
XXX disp-56 0
XXX disp-57 0
XXX disp-58 0
XXX disp-59 0
XXX disp-60 0
XXX disp-61 0
XXX disp-62 0
XXX disp-63 13
XXX disp-64 0
XXX disp-65 0
XXX diffBits-0 1767731
XXX diffBits-1 58
XXX diffBits-2 259352
XXX diffBits-3 590505
XXX diffBits-4 739439
XXX diffBits-5 1190488
XXX diffBits-6 529636
XXX diffBits-7 567237
XXX diffBits-8 354842
XXX diffBits-9 442546
XXX diffBits-10 165064
XXX diffBits-11 108777
XXX diffBits-12 166340
XXX diffBits-13 114590
XXX diffBits-14 49598
XXX diffBits-15 79883
XXX diffBits-16 107020
XXX diffBits-17 90394
XXX diffBits-18 92858
XXX diffBits-19 223273
XXX diffBits-20 236807
XXX diffBits-21 137420
XXX diffBits-22 243084
XXX diffBits-23 177773
XXX diffBits-24 0
XXX diffBits-25 109894
XXX diffBits-26 0
XXX diffBits-27 25410
XXX diffBits-28 0
XXX diffBits-29 0
XXX diffBits-30 0
XXX diffBits-31 0
XXX diffBits-32 0
XXX diffBits-33 0
XXX diffBits-34 0
XXX diffBits-35 0
XXX diffBits-36 0
XXX diffBits-37 0
XXX diffBits-38 0
XXX diffBits-39 0
XXX diffBits-40 0
XXX diffBits-41 0
XXX diffBits-42 0
XXX diffBits-43 0
XXX diffBits-44 0
XXX diffBits-45 0
XXX diffBits-46 0
XXX diffBits-47 0
XXX diffBits-48 0
XXX diffBits-49 0
XXX diffBits-50 0
XXX diffBits-51 0
XXX diffBits-52 0
XXX diffBits-53 0
XXX diffBits-54 0
XXX diffBits-55 0
XXX diffBits-56 0
XXX diffBits-57 0
XXX diffBits-58 0
XXX diffBits-59 0
XXX diffBits-60 0
XXX diffBits-61 0
XXX diffBits-62 13
XXX diffBits-63 0
XXX diffBits-64 0
XXX diffBits-65 0
CPU 0 L1D next line prefetcher final stats

DRAM Statistics
 CHANNEL 0
 RQ ROW_BUFFER_HIT:      23695  ROW_BUFFER_MISS:     121019
 DBUS_CONGESTED:      51237
 WQ ROW_BUFFER_HIT:       9892  ROW_BUFFER_MISS:      45391  FULL:          0

 AVG_CONGESTED_CYCLE: 5

CPU 0 Branch Prediction Accuracy: 91.2334% MPKI: 17.6049 Average ROB Occupancy at Mispredict: 49.5584

XXX total_mispredicts 880243
XXX total_target_mispredicts1 547927
XXX total_target_mispredicts2 209202
XXX total_direction_mispredicts 123114
XXX mispredict_on_btb_hit 315243
XXX NOT_BRANCH: 0
XXX BRANCH_DIRECT_JUMP: 5136
XXX BRANCH_INDIRECT: 20278
XXX BRANCH_CONDITIONAL: 0
XXX BRANCH_DIRECT_CALL: 3482
XXX BRANCH_INDIRECT_CALL: 3900
XXX BRANCH_RETURN: 282447
XXX BRANCH_OTHER: 0
Branch types
NOT_BRANCH: 39958759 79.9175%
BRANCH_DIRECT_JUMP: 449946 0.899892%
BRANCH_INDIRECT: 140210 0.28042%
BRANCH_CONDITIONAL: 7679662 15.3593%
BRANCH_DIRECT_CALL: 701578 1.40316%
BRANCH_INDIRECT_CALL: 168971 0.337942%
BRANCH_RETURN: 900560 1.80112%
BRANCH_OTHER: 0 0%

XXX BTB_reads: 10638886
XXX BTB_writes: 435841
XXX PageBTB_reads: 0
XXX PageBTB_writes: 0
XXX PageBTB_readsBeforeWrite: 0
XXX RegionBTB_reads: 0
XXX RegionBTB_writes: 0
XXX RegionBTB_readsBeforeWrite: 0
XXX BTB_4D_Hits 698502
XXX BTB_6D_Hits 1068523
XXX BTB_8D_Hits 611097
XXX BTB_12D_Hits 235886
XXX BTB_18D_Hits 363668
XXX BTB_25D_Hits 278637
XXX BTB_46D_Hits 10913
XXX BTB_Ret_Hits 863102
XXX BTB_4D_Misses 91698
XXX BTB_6D_Misses 24688
XXX BTB_8D_Misses 56321
XXX BTB_12D_Misses 39654
XXX BTB_18D_Misses 29933
XXX BTB_25D_Misses 71483
XXX BTB_46D_Misses 84606
XXX BTB_Ret_Misses 37458
XXX Num_unique_branches 22935
total instructions: 0
wc,tif,trb
1234,7654,17846
1718,9478,15484
1930,14305,13091
1091,8451,8062
869,5787,10273
79,733,316
3081,14800,24182
674,3593,6168
424,2473,3318
213,1679,3262
538,3842,4228
2548,10940,25036
1150,8237,11758
210,2251,2046
776,3920,12330
819,4460,9147
1377,8636,17049
899,6243,6024
2608,12836,24667
2173,15101,13895
1316,9240,7874
944,4575,8812
1773,11681,12977
1133,6112,11193
1165,6155,11342
48,385,312
363,2545,2445
1275,8156,10041
2362,13974,18609
300,2052,1641
1429,9822,14513
1023,8797,4869
2002,9945,17731
1891,12784,13252
565,2738,7983
1801,16099,4366
930,5201,13827
355,2589,4214
576,2952,10193
2126,11351,11803
1910,12099,11666
794,4054,11211
829,6162,6346
606,3126,8457
1602,7472,18231
1083,7125,12773
1790,11624,14170
1441,11348,13123
607,4161,3779
190,1058,2393
1301,9479,5748
2154,11318,13852
856,5986,7910
2790,14926,27205
153,622,2993
1501,10906,9879
998,6056,10768
1223,6319,13151
426,1747,8573
1485,8006,14150
1711,9645,15996
3442,20433,31490
2158,13168,19895
832,3108,11450
1821,11172,17610
1814,13312,10858
2519,12175,25212
2151,12213,11605
14,59,115
1471,8603,15641
2428,11818,19203
1095,6225,11268
1569,8150,16448
602,4957,4513
1553,5122,23179
1750,9599,16933
863,3675,14994
16,35,231
1054,7337,12720
710,3670,7528
1396,9116,11095
1284,4868,18479
3198,16834,22062
2139,13159,17178
3721,22129,21274
1277,7015,15056
2211,10919,19799
1778,8762,18871
2443,13175,20962
2438,12740,21261
2228,13219,16865
1290,5852,16832
2327,18811,7845
1918,7680,19852
2402,17353,22511
1609,9747,12996
1087,6132,14952
2059,11359,16308
2545,15294,24658
836,4341,14449
1585,10300,13716
1477,6818,18976
1089,4431,16554
3377,21703,16325
1681,9164,16087
2064,10227,21731
854,3635,12827
1196,6968,8703
1015,6258,14747
626,4189,3776
2201,9977,23312
1151,8978,7315
746,4514,8084
2253,14624,21609
995,5932,10294
2876,13270,27483
1329,6824,13776
1524,9514,12041
1425,6790,15926
1782,9634,16585
42,224,688
888,7808,8858
1644,8683,26280
2551,17294,20045
860,3075,16427
2401,15702,18821
1430,8916,15544
2541,13308,29827
2177,12938,18978
2179,11718,20559
1731,9188,19518
2824,14847,23826
2367,13078,26626
1615,8620,13790
2246,14322,11401
2462,18187,19143
1909,15121,8506
1096,5839,11596
1821,10513,20146
2581,11008,26731
820,4363,8225
1389,8571,11653
2107,9631,20960
1163,6878,14147
1349,9337,10106
740,3609,11765
1105,7214,13355
2504,14214,17999
2274,13569,12517
1239,9193,11248
2671,11203,25408
1920,7530,16836
384,1914,6504
2229,15560,12720
1498,9199,13244
2245,10310,17093
1749,7100,20914
840,4526,11384
2437,10346,29254
1570,9076,13152
2414,14400,16394
2742,14575,21790
1959,7742,22850
980,6706,8801
2761,13677,23772
38,197,571
2205,12649,20124
1217,4373,17496
2734,20056,16225
1369,9304,8105
1361,6688,12740
3297,21351,23709
1252,7337,14246
1865,7712,25350
938,3321,10523
1892,11063,15566
1200,7624,7065
1781,10073,17554
1281,4925,19866
979,4375,12263
1736,7123,13827
672,4430,7068
2098,12466,11271
2104,10976,20042
2094,10887,23915
1656,10297,10676
2975,14507,24151
1530,8193,15423
1415,9716,11403
665,2319,13066
2076,12863,17602
1424,5592,19038
1675,8597,15982
2902,12501,29594
1193,10249,6919
2374,11183,24888
942,3887,17516
2545,11993,24246
1398,8331,11812
795,5735,10027
2310,12588,21337
1908,11725,14624
1758,10122,13191
2155,12326,16075
1377,8271,13761
1691,12844,10752
1324,8142,10538
969,4274,12490
2741,15341,22021
1491,10456,11919
933,4710,11047
1323,10333,11939
1112,5868,9753
2407,13490,21982
1700,9266,14649
2004,8437,20773
3443,17189,31088
979,5444,16104
3315,14671,34705
2466,13747,24383
716,3352,13804
3976,26147,26197
2529,17021,17538
1960,11043,25361
1708,10426,15966
2114,11179,21938
1249,8104,8270
3076,16434,18930
3094,20043,20433
2129,15777,16768
1801,9694,18523
1498,9502,11516
280,2250,2338
1199,8226,11771
2104,8194,29368
4173,20812,38885
1277,6829,11272
3611,16991,36069
1559,8925,14934
966,5467,12841
636,4374,7868
2793,13058,25202
1656,8246,14094
1993,9968,18072
2948,16817,21633
893,4884,11565
566,2306,9286
1378,6883,12283
810,4790,10752
2707,17021,16395
1718,8410,13660
1471,6994,14711
1757,10674,14833
2051,13358,10653
514,1826,10318
3841,20833,45393
515,3517,6413
2640,18042,11949
3145,19355,19185
775,4153,9094
1570,7586,16041
185,1193,2190
2087,11001,18277
91,539,635
914,5224,8427
2722,18574,10227
1867,9673,19939
1163,7660,10051
1745,6799,20601
1787,8655,14217
1672,7750,15928
1772,7681,17661
2036,14070,17372
1858,10110,15491
611,3331,7489
1389,7659,11253
2170,14060,14426
2708,14089,26278
2951,13580,25157
2207,8524,19776
2202,12719,21383
945,6281,10418
1361,8094,15566
2270,11508,19093
2465,19969,12275
1942,9567,21081
1193,7968,10320
2695,18630,21607
1864,12226,12183
1828,9643,17095
1119,7870,8595
2216,15860,11409
1030,4596,13610
2335,11350,20130
1239,7669,10742
2774,15294,25471
1539,10781,9687
2000,14963,9634
926,4935,9508
2870,14712,30393
1716,12475,11614
1734,8798,15611
2308,11826,18405
2706,16141,20365
1472,9321,13234
1665,11554,10465
2385,10824,27982
2449,13582,18116
2215,12916,22152
2244,9665,19178
505,3000,8669
813,3181,14332
1737,12219,8445
805,5913,6447
1954,14568,15412
2038,10920,29464
3431,20013,24081
801,3051,12254
1998,9344,21044
2337,14893,21035
2067,15702,9511
2044,13652,14172
2529,16090,20679
2369,16901,11123
415,2214,3299
71,351,974
1344,6978,17306
1431,7632,13533
1129,5546,15560
1669,11141,13126
2865,16866,19009
2879,16625,20419
1065,6820,9116
1865,9859,17810
1300,7666,10213
2030,9678,20686
1198,7025,10779
1190,5693,13533
525,4553,3334
1825,9048,17509
1454,6212,14719
3360,20118,26613
1787,9214,15382
1779,8329,16023
531,3495,3798
1930,13069,14516
3856,13174,39498
1706,12250,11403
3076,14884,27232
3469,20117,23834
2015,13194,19897
2024,10199,21501
769,3212,14211
2412,13678,23724
1588,7489,11791
434,2745,5913
433,2552,4573
1069,7857,7866
1429,8212,14197
517,2690,6011
1720,12491,8895
696,4265,10493
2273,11071,23216
1632,13082,7695
728,3986,12118
1614,9516,13904
1340,7112,7367
1143,8013,7348
823,5194,8447
2487,12927,17969
764,4260,9670
3548,18618,29879
1840,9331,14212
1802,9028,19319
1558,6637,14416
1820,7783,13432
1892,12581,10726
3238,24755,14148
992,5954,8926
2008,10456,16257
1520,9037,12180
2077,9666,17382
1159,7606,13978
1859,10359,14198
1724,9545,11717
1050,6493,5319
1262,6016,12113
1490,9102,12574
1722,10764,11713
1080,4077,16935
243,1179,3902
1320,7892,9334
1071,7994,8080
1845,16222,10213
2387,14068,13077
1124,5291,12721
2074,12140,16847
1668,9041,13695
2501,12355,27376
1088,6079,11858
1177,7227,11948
2074,13858,12851
1817,11412,15428
2472,13593,16770
1663,10855,15153
3088,15635,23986
2209,9902,29729
1560,8450,19057
1538,7811,17830
1470,8138,12494
2613,14161,20955
1000,4098,17787
2433,13013,20220
3481,17459,32418
2078,9902,22436
1454,9729,11973
1592,8485,11777
2385,12722,22834
974,5444,9946
1480,9621,15215
384,2504,5872
972,7861,3071
1054,5523,10996
3524,18391,31761
2268,11003,17474
2164,11331,20845
1802,9595,13795
3705,15213,43517
2082,9951,27616
1781,12084,16257
435,1080,8930
1092,6765,7609
2236,12633,15154
1216,8925,10397
1772,10255,14560
2871,11376,28722
2481,15233,13333
2097,14504,12732
1391,7415,12494
2157,10613,18511
2141,11030,18362
1849,9694,26188
1327,9946,9632
3689,17737,20615
561,3402,7509
1440,8743,10654
2288,13686,19936
2835,19486,27559
1713,15441,10643
2275,13269,12527
1074,4383,11381
2352,12485,25829
251,766,4532
1747,10433,15535
2244,13120,8557
1951,14253,9320
2719,14986,20151
234,2197,1853
794,3771,12027
724,4576,8670
3420,22339,25048
1520,7391,18089
2410,17014,17152
1654,9068,20213
1719,8487,14686
1741,8131,28506
1610,11400,11865
3307,18560,29796
1639,13383,8056
4015,20365,38244
1317,4746,16189
976,6562,6577
1605,8472,16466
1914,10124,22513
2593,14876,33767
1460,7394,16430
910,5869,9787
733,4732,6077
1577,8647,17361
1526,7951,14675
2326,13286,15064
780,3575,13227
1323,10276,9527
2606,18662,13240
1093,5951,16486
455,2585,6280
2909,17245,22301
1818,7498,19868
1361,7982,13988
1691,8946,17335
1105,6420,10940
1202,7138,12807
417,1790,8197
2646,9639,31604
521,4393,3597
2153,10281,16672
1541,8650,7596
1032,5558,12323
4059,25664,41268
561,4773,4946
861,6878,6493
77,579,856
1517,7949,20013
1276,6168,11213
2087,13764,15746
771,2829,13460
1733,9607,19156
2230,11876,17101
808,4852,7442
1763,10790,24365
1351,11194,17956
1971,11620,26158
