Initialize SIGNATURE TABLE
ST_SET: 1
ST_WAY: 256
ST_TAG_BIT: 16
ST_TAG_MASK: ffff

Initialize PATTERN TABLE
PT_SET: 512
PT_WAY: 4
SIG_DELTA_BIT: 7
C_SIG_BIT: 4
C_DELTA_BIT: 4

Initialize PREFETCH FILTER
FILTER_SET: 1024

*** ChampSim Multicore Out-of-Order Simulator ***

Warmup Instructions: 50000000
Simulation Instructions: 50000000
Number of CPUs: 1
LLC sets: 2048
LLC ways: 16
Off-chip DRAM Size: 4096 MB Channels: 1 Width: 64-bit Data Rate: 3200 MT/s

CPU 0 runs /ChampSim-master-BTBX/dpc3_traces/server_018.champsimtrace.xz
Basic BTB sets: 4096 ways: 4 indirect buffer size: 4096 RAS size: 64
CPU 0 L1D next line prefetcher
Heartbeat CPU 0 instructions: 10000003 cycles: 3618751 heartbeat IPC: 2.76339 cumulative IPC: 2.76339 (Simulation time: 0 hr 0 min 19 sec) 
Heartbeat CPU 0 instructions: 20000001 cycles: 7242484 heartbeat IPC: 2.75958 cumulative IPC: 2.76148 (Simulation time: 0 hr 0 min 38 sec) 
Heartbeat CPU 0 instructions: 30000003 cycles: 10719351 heartbeat IPC: 2.87615 cumulative IPC: 2.79868 (Simulation time: 0 hr 0 min 56 sec) 
Heartbeat CPU 0 instructions: 40000000 cycles: 14233352 heartbeat IPC: 2.84576 cumulative IPC: 2.8103 (Simulation time: 0 hr 1 min 14 sec) 
Heartbeat CPU 0 instructions: 50000003 cycles: 17852684 heartbeat IPC: 2.76294 cumulative IPC: 2.8007 (Simulation time: 0 hr 1 min 33 sec) 

Warmup complete CPU 0 instructions: 50000003 cycles: 17852684 (Simulation time: 0 hr 1 min 33 sec) 

Heartbeat CPU 0 instructions: 60000000 cycles: 38541681 heartbeat IPC: 0.483349 cumulative IPC: 0.483349 (Simulation time: 0 hr 1 min 56 sec) 
Heartbeat CPU 0 instructions: 70000000 cycles: 59279644 heartbeat IPC: 0.482207 cumulative IPC: 0.482777 (Simulation time: 0 hr 2 min 19 sec) 
Heartbeat CPU 0 instructions: 80000000 cycles: 79817391 heartbeat IPC: 0.486908 cumulative IPC: 0.484147 (Simulation time: 0 hr 2 min 42 sec) 
Heartbeat CPU 0 instructions: 90000000 cycles: 100431589 heartbeat IPC: 0.485103 cumulative IPC: 0.484385 (Simulation time: 0 hr 3 min 5 sec) 
Heartbeat CPU 0 instructions: 100000001 cycles: 120989891 heartbeat IPC: 0.486422 cumulative IPC: 0.484791 (Simulation time: 0 hr 3 min 28 sec) 
Finished CPU 0 instructions: 50000002 cycles: 103137208 cumulative IPC: 0.484791 (Simulation time: 0 hr 3 min 28 sec) 

ChampSim completed all CPUs

Region of Interest Statistics

CPU 0
XXX cumulative-IPC 0.484791
XXX instructions 50000002
XXX cycles 103137208
L1D TOTAL     ACCESS:   20022417  HIT:   17804150  MISS:    2218267
L1D LOAD      ACCESS:    7674203  HIT:    6974256  MISS:     699947
L1D RFO       ACCESS:    5860249  HIT:    4907190  MISS:     953059
L1D PREFETCH  ACCESS:    6487965  HIT:    5922704  MISS:     565261
L1D WRITEBACK ACCESS:          0  HIT:          0  MISS:          0
L1D PREFETCH  REQUESTED:    7721621  ISSUED:    7568299
XXX L1D-USEFUL 224603
XXX L1D-USELESS 340746
L1D AVERAGE MISS LATENCY: 166.117 cycles
L1I TOTAL     ACCESS:   14561738  HIT:   11505967  MISS:    3055771
L1I LOAD      ACCESS:   10241804  HIT:    8487247  MISS:    1754557
L1I RFO       ACCESS:          0  HIT:          0  MISS:          0
L1I PREFETCH  ACCESS:    4319934  HIT:    3018720  MISS:    1301214
L1I WRITEBACK ACCESS:          0  HIT:          0  MISS:          0
L1I PREFETCH  REQUESTED:    6943203  ISSUED:    6943203
XXX L1I-USEFUL 783925
XXX L1I-USELESS 517310
L1I AVERAGE MISS LATENCY: 15.8146 cycles
L2C TOTAL     ACCESS:    8102812  HIT:    6204086  MISS:    1898726
L2C LOAD      ACCESS:    2045630  HIT:    1714371  MISS:     331259
L2C RFO       ACCESS:     952571  HIT:      18975  MISS:     933596
L2C PREFETCH  ACCESS:    3934193  HIT:    3303016  MISS:     631177
L2C WRITEBACK ACCESS:    1170418  HIT:    1167724  MISS:       2694
L2C PREFETCH  REQUESTED:    4720880  ISSUED:    4718094
XXX L2C-USEFUL 38151
XXX L2C-USELESS 593634
L2C AVERAGE MISS LATENCY: 196.493 cycles
LLC TOTAL     ACCESS:    4044633  HIT:    2574712  MISS:    1469921
LLC LOAD      ACCESS:     331131  HIT:     219207  MISS:     111924
LLC RFO       ACCESS:     933560  HIT:     136877  MISS:     796683
LLC PREFETCH  ACCESS:    1677028  HIT:    1117803  MISS:     559225
LLC WRITEBACK ACCESS:    1102914  HIT:    1100825  MISS:       2089
LLC PREFETCH  REQUESTED:          0  ISSUED:          0
XXX LLC-USEFUL 36084
XXX LLC-USELESS 522386
LLC AVERAGE MISS LATENCY: 260.694 cycles
Major fault: 0 Minor fault: 22445
XXX disp-0 1783880
XXX disp-1 0
XXX disp-2 0
XXX disp-3 764317
XXX disp-4 1132647
XXX disp-5 1065400
XXX disp-6 1413266
XXX disp-7 611363
XXX disp-8 570902
XXX disp-9 363889
XXX disp-10 232564
XXX disp-11 205105
XXX disp-12 268261
XXX disp-13 119691
XXX disp-14 119379
XXX disp-15 132346
XXX disp-16 190891
XXX disp-17 67176
XXX disp-18 198418
XXX disp-19 156808
XXX disp-20 94837
XXX disp-21 30401
XXX disp-22 9050
XXX disp-23 186392
XXX disp-24 0
XXX disp-25 0
XXX disp-26 0
XXX disp-27 0
XXX disp-28 0
XXX disp-29 0
XXX disp-30 0
XXX disp-31 0
XXX disp-32 0
XXX disp-33 0
XXX disp-34 0
XXX disp-35 0
XXX disp-36 0
XXX disp-37 0
XXX disp-38 0
XXX disp-39 0
XXX disp-40 0
XXX disp-41 0
XXX disp-42 0
XXX disp-43 0
XXX disp-44 0
XXX disp-45 0
XXX disp-46 93041
XXX disp-47 0
XXX disp-48 0
XXX disp-49 0
XXX disp-50 0
XXX disp-51 0
XXX disp-52 0
XXX disp-53 0
XXX disp-54 0
XXX disp-55 0
XXX disp-56 0
XXX disp-57 0
XXX disp-58 0
XXX disp-59 0
XXX disp-60 0
XXX disp-61 0
XXX disp-62 0
XXX disp-63 0
XXX disp-64 0
XXX disp-65 0
XXX diffBits-0 1783880
XXX diffBits-1 0
XXX diffBits-2 645967
XXX diffBits-3 728273
XXX diffBits-4 446465
XXX diffBits-5 1010039
XXX diffBits-6 771425
XXX diffBits-7 546091
XXX diffBits-8 530794
XXX diffBits-9 988557
XXX diffBits-10 283677
XXX diffBits-11 328786
XXX diffBits-12 100345
XXX diffBits-13 282863
XXX diffBits-14 98571
XXX diffBits-15 133384
XXX diffBits-16 301763
XXX diffBits-17 33058
XXX diffBits-18 109258
XXX diffBits-19 283886
XXX diffBits-20 94016
XXX diffBits-21 29333
XXX diffBits-22 186552
XXX diffBits-23 0
XXX diffBits-24 0
XXX diffBits-25 0
XXX diffBits-26 0
XXX diffBits-27 0
XXX diffBits-28 0
XXX diffBits-29 0
XXX diffBits-30 0
XXX diffBits-31 0
XXX diffBits-32 0
XXX diffBits-33 0
XXX diffBits-34 0
XXX diffBits-35 0
XXX diffBits-36 0
XXX diffBits-37 0
XXX diffBits-38 0
XXX diffBits-39 0
XXX diffBits-40 0
XXX diffBits-41 0
XXX diffBits-42 0
XXX diffBits-43 0
XXX diffBits-44 0
XXX diffBits-45 93041
XXX diffBits-46 0
XXX diffBits-47 0
XXX diffBits-48 0
XXX diffBits-49 0
XXX diffBits-50 0
XXX diffBits-51 0
XXX diffBits-52 0
XXX diffBits-53 0
XXX diffBits-54 0
XXX diffBits-55 0
XXX diffBits-56 0
XXX diffBits-57 0
XXX diffBits-58 0
XXX diffBits-59 0
XXX diffBits-60 0
XXX diffBits-61 0
XXX diffBits-62 0
XXX diffBits-63 0
XXX diffBits-64 0
XXX diffBits-65 0
CPU 0 L1D next line prefetcher final stats

DRAM Statistics
 CHANNEL 0
 RQ ROW_BUFFER_HIT:     433659  ROW_BUFFER_MISS:    1033965
 DBUS_CONGESTED:    1340311
 WQ ROW_BUFFER_HIT:     238841  ROW_BUFFER_MISS:     662589  FULL:          0

 AVG_CONGESTED_CYCLE: 6

CPU 0 Branch Prediction Accuracy: 94.8429% MPKI: 8.51846 Average ROB Occupancy at Mispredict: 70.1352

XXX total_mispredicts 425923
XXX total_target_mispredicts1 286998
XXX total_target_mispredicts2 1877
XXX total_direction_mispredicts 137048
XXX mispredict_on_btb_hit 270130
XXX NOT_BRANCH: 0
XXX BRANCH_DIRECT_JUMP: 1410
XXX BRANCH_INDIRECT: 0
XXX BRANCH_CONDITIONAL: 0
XXX BRANCH_DIRECT_CALL: 321
XXX BRANCH_INDIRECT_CALL: 28552
XXX BRANCH_RETURN: 239847
XXX BRANCH_OTHER: 0
Branch types
NOT_BRANCH: 41741008 83.482%
BRANCH_DIRECT_JUMP: 458652 0.917304%
BRANCH_INDIRECT: 48282 0.096564%
BRANCH_CONDITIONAL: 5930881 11.8618%
BRANCH_DIRECT_CALL: 744230 1.48846%
BRANCH_INDIRECT_CALL: 166336 0.332672%
BRANCH_RETURN: 910589 1.82118%
BRANCH_OTHER: 0 0%

XXX BTB_reads: 5112192
XXX BTB_writes: 18418
XXX PageBTB_reads: 0
XXX PageBTB_writes: 0
XXX PageBTB_readsBeforeWrite: 0
XXX RegionBTB_reads: 0
XXX RegionBTB_writes: 0
XXX RegionBTB_readsBeforeWrite: 0
XXX BTB_4D_Hits 827854
XXX BTB_6D_Hits 909760
XXX BTB_8D_Hits 1088315
XXX BTB_12D_Hits 466317
XXX BTB_18D_Hits 551709
XXX BTB_25D_Hits 111860
XXX BTB_46D_Hits 37670
XXX BTB_Ret_Hits 910507
XXX BTB_4D_Misses 68
XXX BTB_6D_Misses 53
XXX BTB_8D_Misses 278
XXX BTB_12D_Misses 536
XXX BTB_18D_Misses 848
XXX BTB_25D_Misses 3446
XXX BTB_46D_Misses 13107
XXX BTB_Ret_Misses 82
XXX Num_unique_branches 4656
total instructions: 0
wc,tif,trb
5,11,51
11,51,84
8,32,67
8,17,63
4,8,27
7,12,43
8,31,49
4,10,24
15,77,110
90,469,1645
90,548,1092
11,41,180
17,83,216
11,50,103
8,15,65
6,21,48
99,774,1575
5,12,13
6,16,44
7,24,47
12,83,91
5,4,23
7,15,62
6,7,29
10,41,111
6,14,30
16,96,124
4,13,28
6,30,30
14,55,157
20,151,263
6,23,32
7,14,66
9,44,89
6,14,46
9,30,61
6,24,54
4,9,26
6,13,38
8,19,61
13,57,58
469,3379,6940
5,9,22
7,24,31
11,29,132
7,11,44
8,18,90
23,157,98
22,112,238
464,4131,6000
5,15,40
101,549,673
9,45,46
5,16,40
5,2,30
10,54,81
7,18,57
7,11,69
8,59,72
5,5,34
8,48,32
6,36,35
9,26,103
2,0,7
6,21,15
7,11,62
4,19,43
5,2,37
7,38,23
6,13,63
9,40,103
10,56,104
10,40,114
6,18,18
5,7,51
10,48,52
13,69,159
5,9,26
7,35,41
8,42,106
6,13,71
3,4,26
11,43,76
6,33,31
458,3782,6192
5,23,41
14,58,116
10,27,103
9,34,65
17,170,141
5,8,38
8,25,55
12,51,143
4,22,54
9,43,46
15,90,169
7,16,78
4,2,28
3,5,23
13,37,211
9,43,82
7,27,63
7,30,25
8,28,52
7,31,44
8,26,54
10,62,76
7,30,46
3,7,24
5,6,25
8,26,89
8,38,57
5,11,41
62,352,922
5,9,34
45,351,679
5,12,59
4,7,22
7,16,59
8,34,60
9,26,73
5,16,30
6,27,41
8,39,88
19,56,258
12,58,104
18,65,195
33,238,404
24,159,321
9,51,60
8,36,44
7,16,39
92,643,357
7,12,87
4,4,26
6,18,32
8,37,43
6,25,48
4,6,18
6,16,20
15,55,137
12,63,67
10,17,116
10,51,73
6,19,31
11,33,161
6,38,44
8,36,64
43,308,383
65,583,489
5,12,13
11,72,71
9,62,70
14,76,174
4,2,30
4,6,46
14,99,81
7,34,51
39,139,575
14,106,95
13,79,86
8,14,94
8,51,49
9,23,100
8,27,83
5,7,18
5,25,69
18,73,276
4,11,36
7,18,51
10,64,60
5,7,38
14,58,111
9,45,50
4,7,49
12,43,145
7,10,88
17,98,115
4,10,24
7,33,42
8,43,57
6,9,46
3,7,20
13,24,109
12,32,120
8,26,54
4,8,37
5,7,50
7,24,51
8,22,101
4,6,45
5,9,16
40,285,423
8,17,69
7,40,40
5,23,45
12,61,120
7,9,46
5,14,11
6,8,46
7,30,39
36,199,518
13,79,84
4,21,32
9,18,128
6,11,50
7,26,43
7,30,46
11,63,66
15,101,106
3,3,25
11,68,81
5,13,57
5,11,30
7,11,58
17,108,192
7,21,34
10,30,72
8,22,58
11,39,61
11,76,99
4,12,27
4,5,15
11,55,123
7,19,66
7,18,58
5,8,36
5,9,34
11,32,129
7,20,35
11,48,134
5,9,26
8,33,47
42,208,705
13,85,80
14,43,119
2182,6539,47957
27,107,153
9,44,85
7,22,47
7,27,52
6,24,65
7,19,54
12,55,122
9,57,42
9,59,60
5,16,11
8,22,78
15,83,116
3,12,25
7,20,53
6,18,50
24,197,181
5,5,38
5,23,62
6,14,54
34,302,242
7,24,56
4,5,34
7,12,49
4,15,33
11,30,182
6,6,62
5,9,36
12,50,58
5,10,31
6,8,54
21,116,199
10,38,92
7,16,53
6,19,41
7,27,53
135,924,2004
12,33,125
30,276,270
9,38,65
45,163,725
332,1715,3331
11,27,112
4,29,35
5,27,37
7,22,53
12,48,117
6,13,62
4,6,37
6,12,24
22,96,216
4,9,21
11,34,107
7,17,38
11,37,90
9,17,56
7,30,25
8,29,72
8,22,58
6,23,41
6,27,75
8,66,55
9,41,118
9,41,83
11,66,72
10,27,112
8,30,71
13,110,97
7,25,44
189,843,2792
3,2,21
11,36,136
7,27,46
4,11,27
9,37,105
5,9,16
10,69,66
5,31,40
5,12,46
13,52,107
6,15,47
4,17,47
5,11,66
5,16,55
3,8,20
8,30,64
8,19,75
13,93,112
8,27,74
3,2,14
8,28,52
5,10,31
12,72,89
5,10,47
13,52,159
12,72,74
7,26,85
5,10,41
200,1361,3341
13,54,109
6,17,47
4,10,45
8,37,43
80,366,1318
7,38,37
86,452,1318
255,1594,3533
6,6,45
5,11,14
5,11,20
12,37,143
9,38,81
40,106,372
8,39,41
9,73,70
6,27,63
5,18,37
1,0,0
13,69,68
7,11,44
29,279,180
18,116,122
4,3,13
10,53,77
4,12,44
6,1,43
16,81,121
2,1,23
14,61,104
12,63,75
8,53,27
9,33,93
7,21,40
182,2793,1470
7,30,66
8,30,50
8,30,50
10,38,92
9,51,40
11,61,96
4,6,27
6,7,58
6,8,40
7,20,49
19,150,127
4,25,39
4,8,37
0,0,0
13,49,181
6,8,28
13,38,191
22,110,305
2,1,15
8,24,56
4,15,69
7,12,61
5,29,40
16,108,118
7,15,40
11,33,162
7,7,66
10,55,75
3,6,24
4,2,37
14,108,104
11,43,104
13,39,176
7,14,41
10,27,127
236,474,2759
10,65,87
4,8,54
16,99,131
10,46,78
8,27,53
8,28,38
17,70,166
11,40,145
19,143,213
7,10,65
7,36,19
9,17,72
12,40,122
5,6,44
5,7,45
5,17,48
7,9,67
24,183,164
3,2,26
2,9,35
7,12,86
3,6,18
16,69,247
8,20,60
8,24,56
7,37,43
10,37,83
70,274,1386
8,7,73
12,44,103
9,26,99
8,17,99
12,65,73
5,7,24
455,3314,6213
13,108,85
6,45,73
4,7,53
22,86,238
3,1,23
7,18,53
6,16,60
7,9,62
8,47,33
123,684,2201
6,17,52
50,399,653
12,70,144
9,50,49
12,47,131
8,49,70
11,44,159
266,2070,4426
506,4558,4086
12,29,161
5,15,50
8,44,82
12,69,90
6,9,55
6,25,30
4,8,27
8,32,56
6,13,63
13,63,137
25,111,268
8,16,80
7,27,81
195,1995,1972
6,10,61
12,43,123
107,1073,1248
10,58,66
9,36,69
17,65,146
4,7,29
4,3,36
7,22,49
369,3161,4163
7,17,38
8,33,47
15,96,81
5,6,46
8,34,60
474,2980,6918
14,54,146
9,28,77
6,16,51
20,126,71
10,28,127
6,26,59
10,53,77
8,15,85
7,6,69
15,89,130
5,6,33
84,350,1556
16,62,132
3,3,23
11,44,114
5,21,64
177,1187,2174
5,16,50
10,66,121
8,57,105
8,47,74
12,62,132
