Initialize SIGNATURE TABLE
ST_SET: 1
ST_WAY: 256
ST_TAG_BIT: 16
ST_TAG_MASK: ffff

Initialize PATTERN TABLE
PT_SET: 512
PT_WAY: 4
SIG_DELTA_BIT: 7
C_SIG_BIT: 4
C_DELTA_BIT: 4

Initialize PREFETCH FILTER
FILTER_SET: 1024

*** ChampSim Multicore Out-of-Order Simulator ***

Warmup Instructions: 50000000
Simulation Instructions: 50000000
Number of CPUs: 1
LLC sets: 2048
LLC ways: 16
Off-chip DRAM Size: 4096 MB Channels: 1 Width: 64-bit Data Rate: 3200 MT/s

CPU 0 runs /ChampSim-master-BTBX/dpc3_traces/server_026.champsimtrace.xz
Basic BTB sets: 4096 ways: 4 indirect buffer size: 4096 RAS size: 64
CPU 0 L1D next line prefetcher
Heartbeat CPU 0 instructions: 10000000 cycles: 3526300 heartbeat IPC: 2.83583 cumulative IPC: 2.83583 (Simulation time: 0 hr 0 min 19 sec) 
Heartbeat CPU 0 instructions: 20000002 cycles: 7058606 heartbeat IPC: 2.83101 cumulative IPC: 2.83342 (Simulation time: 0 hr 0 min 38 sec) 
Heartbeat CPU 0 instructions: 30000000 cycles: 10580649 heartbeat IPC: 2.83926 cumulative IPC: 2.83536 (Simulation time: 0 hr 0 min 56 sec) 
Heartbeat CPU 0 instructions: 40000003 cycles: 14111484 heartbeat IPC: 2.83219 cumulative IPC: 2.83457 (Simulation time: 0 hr 1 min 15 sec) 
Heartbeat CPU 0 instructions: 50000000 cycles: 17635529 heartbeat IPC: 2.83765 cumulative IPC: 2.83519 (Simulation time: 0 hr 1 min 33 sec) 

Warmup complete CPU 0 instructions: 50000004 cycles: 17635530 (Simulation time: 0 hr 1 min 33 sec) 

*** Reached end of trace for Core: 0 Repeating trace: /ChampSim-master-BTBX/dpc3_traces/server_026.champsimtrace.xz
Heartbeat CPU 0 instructions: 60000000 cycles: 32027861 heartbeat IPC: 0.694814 cumulative IPC: 0.694814 (Simulation time: 0 hr 1 min 51 sec) 
Heartbeat CPU 0 instructions: 70000001 cycles: 46279145 heartbeat IPC: 0.701691 cumulative IPC: 0.698236 (Simulation time: 0 hr 2 min 9 sec) 
Heartbeat CPU 0 instructions: 80000003 cycles: 60662565 heartbeat IPC: 0.695245 cumulative IPC: 0.697236 (Simulation time: 0 hr 2 min 27 sec) 
Heartbeat CPU 0 instructions: 90000002 cycles: 74937052 heartbeat IPC: 0.70055 cumulative IPC: 0.698062 (Simulation time: 0 hr 2 min 45 sec) 
Heartbeat CPU 0 instructions: 100000000 cycles: 89285972 heartbeat IPC: 0.696916 cumulative IPC: 0.697832 (Simulation time: 0 hr 3 min 3 sec) 
Finished CPU 0 instructions: 50000000 cycles: 71650443 cumulative IPC: 0.697832 (Simulation time: 0 hr 3 min 3 sec) 

ChampSim completed all CPUs

Region of Interest Statistics

CPU 0
XXX cumulative-IPC 0.697832
XXX instructions 50000000
XXX cycles 71650443
L1D TOTAL     ACCESS:   22535756  HIT:   20887566  MISS:    1648190
L1D LOAD      ACCESS:    8253963  HIT:    7538731  MISS:     715232
L1D RFO       ACCESS:    6354613  HIT:    6068551  MISS:     286062
L1D PREFETCH  ACCESS:    7927180  HIT:    7280284  MISS:     646896
L1D WRITEBACK ACCESS:          0  HIT:          0  MISS:          0
L1D PREFETCH  REQUESTED:    8304801  ISSUED:    8176273
XXX L1D-USEFUL 166652
XXX L1D-USELESS 480256
L1D AVERAGE MISS LATENCY: 24.6871 cycles
L1I TOTAL     ACCESS:   13950184  HIT:   10576347  MISS:    3373837
L1I LOAD      ACCESS:    9112744  HIT:    7341892  MISS:    1770852
L1I RFO       ACCESS:          0  HIT:          0  MISS:          0
L1I PREFETCH  ACCESS:    4837440  HIT:    3234455  MISS:    1602985
L1I WRITEBACK ACCESS:          0  HIT:          0  MISS:          0
L1I PREFETCH  REQUESTED:    7562081  ISSUED:    7562081
XXX L1I-USEFUL 1026012
XXX L1I-USELESS 576981
L1I AVERAGE MISS LATENCY: 13.5955 cycles
L2C TOTAL     ACCESS:    6977532  HIT:    5759605  MISS:    1217927
L2C LOAD      ACCESS:    1435040  HIT:    1152279  MISS:     282761
L2C RFO       ACCESS:     283268  HIT:     171588  MISS:     111680
L2C PREFETCH  ACCESS:    4697971  HIT:    3879330  MISS:     818641
L2C WRITEBACK ACCESS:     561253  HIT:     556408  MISS:       4845
L2C PREFETCH  REQUESTED:    4445510  ISSUED:    4445159
XXX L2C-USEFUL 70836
XXX L2C-USELESS 746247
L2C AVERAGE MISS LATENCY: 35.9238 cycles
LLC TOTAL     ACCESS:    2366923  HIT:    2333376  MISS:      33547
LLC LOAD      ACCESS:     282547  HIT:     279226  MISS:       3321
LLC RFO       ACCESS:     111678  HIT:      97154  MISS:      14524
LLC PREFETCH  ACCESS:    1774105  HIT:    1758509  MISS:      15596
LLC WRITEBACK ACCESS:     198593  HIT:     198487  MISS:        106
LLC PREFETCH  REQUESTED:          0  ISSUED:          0
XXX LLC-USEFUL 1218
XXX LLC-USELESS 14574
LLC AVERAGE MISS LATENCY: 172.744 cycles
Major fault: 0 Minor fault: 2172
XXX disp-0 2209097
XXX disp-1 0
XXX disp-2 1950
XXX disp-3 463385
XXX disp-4 1124497
XXX disp-5 1107854
XXX disp-6 1246685
XXX disp-7 781223
XXX disp-8 592764
XXX disp-9 471209
XXX disp-10 297217
XXX disp-11 212392
XXX disp-12 114951
XXX disp-13 137711
XXX disp-14 123228
XXX disp-15 141072
XXX disp-16 69234
XXX disp-17 65067
XXX disp-18 147164
XXX disp-19 120276
XXX disp-20 134093
XXX disp-21 273952
XXX disp-22 172380
XXX disp-23 358089
XXX disp-24 104557
XXX disp-25 0
XXX disp-26 0
XXX disp-27 0
XXX disp-28 0
XXX disp-29 0
XXX disp-30 0
XXX disp-31 0
XXX disp-32 0
XXX disp-33 0
XXX disp-34 0
XXX disp-35 0
XXX disp-36 0
XXX disp-37 0
XXX disp-38 0
XXX disp-39 0
XXX disp-40 0
XXX disp-41 0
XXX disp-42 0
XXX disp-43 0
XXX disp-44 0
XXX disp-45 0
XXX disp-46 277005
XXX disp-47 0
XXX disp-48 0
XXX disp-49 0
XXX disp-50 0
XXX disp-51 0
XXX disp-52 0
XXX disp-53 0
XXX disp-54 0
XXX disp-55 0
XXX disp-56 0
XXX disp-57 0
XXX disp-58 0
XXX disp-59 0
XXX disp-60 0
XXX disp-61 0
XXX disp-62 0
XXX disp-63 0
XXX disp-64 0
XXX disp-65 0
XXX diffBits-0 2209097
XXX diffBits-1 1446
XXX diffBits-2 175391
XXX diffBits-3 663298
XXX diffBits-4 768913
XXX diffBits-5 899271
XXX diffBits-6 756172
XXX diffBits-7 969937
XXX diffBits-8 595559
XXX diffBits-9 664862
XXX diffBits-10 309083
XXX diffBits-11 304754
XXX diffBits-12 186855
XXX diffBits-13 172803
XXX diffBits-14 68940
XXX diffBits-15 103399
XXX diffBits-16 141562
XXX diffBits-17 107362
XXX diffBits-18 81318
XXX diffBits-19 123172
XXX diffBits-20 289476
XXX diffBits-21 255771
XXX diffBits-22 410785
XXX diffBits-23 0
XXX diffBits-24 0
XXX diffBits-25 210821
XXX diffBits-26 0
XXX diffBits-27 0
XXX diffBits-28 0
XXX diffBits-29 0
XXX diffBits-30 0
XXX diffBits-31 0
XXX diffBits-32 0
XXX diffBits-33 0
XXX diffBits-34 0
XXX diffBits-35 0
XXX diffBits-36 0
XXX diffBits-37 0
XXX diffBits-38 0
XXX diffBits-39 0
XXX diffBits-40 0
XXX diffBits-41 0
XXX diffBits-42 0
XXX diffBits-43 0
XXX diffBits-44 0
XXX diffBits-45 277005
XXX diffBits-46 0
XXX diffBits-47 0
XXX diffBits-48 0
XXX diffBits-49 0
XXX diffBits-50 0
XXX diffBits-51 0
XXX diffBits-52 0
XXX diffBits-53 0
XXX diffBits-54 0
XXX diffBits-55 0
XXX diffBits-56 0
XXX diffBits-57 0
XXX diffBits-58 0
XXX diffBits-59 0
XXX diffBits-60 0
XXX diffBits-61 0
XXX diffBits-62 0
XXX diffBits-63 0
XXX diffBits-64 0
XXX diffBits-65 0
CPU 0 L1D next line prefetcher final stats

DRAM Statistics
 CHANNEL 0
 RQ ROW_BUFFER_HIT:      11878  ROW_BUFFER_MISS:      21554
 DBUS_CONGESTED:      21678
 WQ ROW_BUFFER_HIT:       1527  ROW_BUFFER_MISS:      14238  FULL:          0

 AVG_CONGESTED_CYCLE: 6

CPU 0 Branch Prediction Accuracy: 78.5752% MPKI: 39.2129 Average ROB Occupancy at Mispredict: 36.0487

XXX total_mispredicts 1960647
XXX total_target_mispredicts1 1432812
XXX total_target_mispredicts2 381260
XXX total_direction_mispredicts 146575
XXX mispredict_on_btb_hit 571569
XXX NOT_BRANCH: 0
XXX BRANCH_DIRECT_JUMP: 19218
XXX BRANCH_INDIRECT: 16807
XXX BRANCH_CONDITIONAL: 0
XXX BRANCH_DIRECT_CALL: 14666
XXX BRANCH_INDIRECT_CALL: 15285
XXX BRANCH_RETURN: 505593
XXX BRANCH_OTHER: 0
Branch types
NOT_BRANCH: 40848387 81.6968%
BRANCH_DIRECT_JUMP: 522043 1.04409%
BRANCH_INDIRECT: 204034 0.408068%
BRANCH_CONDITIONAL: 6212934 12.4259%
BRANCH_DIRECT_CALL: 932385 1.86477%
BRANCH_INDIRECT_CALL: 173762 0.347524%
BRANCH_RETURN: 1106140 2.21228%
BRANCH_OTHER: 0 0%

XXX BTB_reads: 23505676
XXX BTB_writes: 1226003
XXX PageBTB_reads: 0
XXX PageBTB_writes: 0
XXX PageBTB_readsBeforeWrite: 0
XXX RegionBTB_reads: 0
XXX RegionBTB_writes: 0
XXX RegionBTB_readsBeforeWrite: 0
XXX BTB_4D_Hits 750672
XXX BTB_6D_Hits 713033
XXX BTB_8D_Hits 905099
XXX BTB_12D_Hits 290059
XXX BTB_18D_Hits 210581
XXX BTB_25D_Hits 164449
XXX BTB_46D_Hits 84083
XXX BTB_Ret_Hits 1030830
XXX BTB_4D_Misses 54181
XXX BTB_6D_Misses 45986
XXX BTB_8D_Misses 132805
XXX BTB_12D_Misses 144778
XXX BTB_18D_Misses 115334
XXX BTB_25D_Misses 242576
XXX BTB_46D_Misses 415033
XXX BTB_Ret_Misses 75310
XXX Num_unique_branches 10002
total instructions: 0
wc,tif,trb
6396,21275,122611
3213,16215,32995
2919,19688,33694
2789,19233,36620
1524,7106,30866
1446,10454,13639
5091,27969,67840
5320,20900,100484
5755,36068,61624
5165,36976,61699
2632,22099,24999
11344,51432,129074
15,69,200
2934,17267,45391
1056,4358,21440
2554,14220,35184
1524,16545,17157
1012,4044,21136
4727,18963,93129
1066,10942,14656
4103,30966,34047
17,95,230
6676,39218,61200
4442,20406,74363
4834,23792,90798
9216,63476,67658
4007,29648,30435
2876,11497,60283
3462,13130,67323
250,1589,4621
7489,31566,125157
1021,9625,15846
3984,33178,36662
1722,11814,21501
4683,23587,73260
1721,14573,20210
4401,15198,88697
6795,35147,115174
4904,22116,80344
2260,5138,51242
6,19,48
2120,22456,16746
1020,3633,21747
1522,7593,30355
2932,17895,40151
6200,38401,27744
2261,10387,28150
4647,15254,90373
5436,24002,75234
4791,23009,54374
59,424,804
8328,54803,90372
7858,36573,98627
6,17,35
3446,20220,32073
6348,25518,104540
3694,27382,53686
8,16,64
4106,19413,52640
6,12,32
842,1260,19721
10061,39100,122571
8310,49274,98534
4,3,48
2075,10296,34537
8482,48979,81856
6620,32712,83545
1717,13341,26670
6534,43854,56606
4917,26360,54947
2603,13630,45283
4187,37949,57144
2947,24463,35165
3175,21348,29293
1858,8090,38156
2026,19680,24833
6486,23655,98743
3944,23056,41547
4121,21346,72485
8480,40942,105464
1779,18251,20962
2610,21976,31833
5836,17769,118635
1518,20091,14623
5218,30733,84309
7,16,59
2023,7581,36864
8877,45014,108173
6374,41007,59003
2335,17473,19048
7332,48548,58549
2018,4538,39805
3424,13327,65925
2024,13123,31347
4507,21915,82140
4776,31296,51281
4344,16172,74871
5198,35631,43301
6937,51084,95652
4133,17473,48136
2119,4426,42311
6785,30831,88844
1859,2784,43577
14687,80195,118904
1027,3625,21816
1068,4711,21743
11139,80564,118323
4482,13662,59288
3777,18771,66488
7899,53174,74935
3620,17819,72417
9175,55361,117609
1465,7279,29154
8069,45494,65063
477,5894,5911
1182,6059,23059
2019,7557,36825
6530,56751,55990
2055,7628,37155
10066,59135,53320
5263,31733,59056
5341,26598,71350
1669,7508,33813
7264,50112,68736
3026,16114,44316
2040,17951,26625
3627,18220,49724
2127,14331,31358
6288,31341,115152
1544,11666,22116
4036,32371,24207
7439,62462,34541
9018,63184,69008
1657,3456,37863
4,5,40
1743,15021,26840
1017,7074,18239
1517,7103,15680
6751,45433,56352
1475,5436,24851
2098,9379,36868
1500,10104,24078
1312,6324,23332
4523,13079,83848
3603,22114,33403
4388,29856,66110
1015,4071,21184
1759,9239,21204
8273,50819,51617
5745,35323,73238
12415,62656,144777
12264,67037,119771
22,165,229
2563,22211,34723
288,2084,4868
2019,8069,36317
5959,35597,76352
675,4922,11731
4986,21694,77692
3567,28951,39644
588,4189,8157
1015,4542,20733
3748,20122,40456
7725,39383,79639
2506,11197,38071
354,591,2228
1024,5625,19907
1518,9086,24249
4343,36613,38142
1522,4603,27219
2520,27125,19149
2894,14643,51635
8623,48016,66730
4,10,52
17,59,271
3563,32280,25363
2895,9255,63031
1022,7578,17792
1006,4,25100
6354,28785,90083
648,3191,11597
2982,20026,46891
5,12,13
1014,3541,21703
8959,53076,91829
1847,18292,18498
604,2621,4291
2100,23952,21177
4774,21537,86442
6173,33077,104141
14,18,249
6107,45853,65084
7655,33080,78182
5,6,41
1486,7370,23676
3650,19924,29387
5234,36804,36212
3977,27147,39564
4726,45031,31866
1022,7594,17752
1029,3661,21800
5781,31637,70093
16,112,94
3203,22022,31595
2524,13202,40192
1911,19846,18773
1016,2032,23248
2833,17102,27263
5,4,23
10546,79643,62727
516,2567,10213
9,28,97
497,3732,8513
4692,24818,47030
1460,4406,31914
1244,7823,18630
10601,87566,53073
353,882,6797
1016,9606,15674
473,1414,10351
2020,17143,19187
7,15,46
1019,4065,21254
5411,29314,80728
1519,5057,32816
3054,11716,16582
1041,6195,19542
5750,21548,86262
1320,3335,29509
6217,32048,73931
12,35,145
268,1068,5548
5335,33777,63572
5535,37425,66520
1026,8133,17442
4637,19172,68755
4745,5620,91305
6165,43797,77825
2762,17285,35738
8374,22802,157706
1530,16211,18759
476,1414,7577
4396,25526,37090
943,8938,9220
9445,61655,63170
2601,9719,20511
8260,39818,82026
1021,6587,18827
3583,36223,43276
4102,21282,75060
441,1754,9151
2257,13450,35419
2535,12649,27772
9234,42756,114026
496,2637,9544
2555,10261,53368
11159,59717,107828
5047,30992,58978
212,1056,2148
2400,3378,56440
2901,11603,60802
1015,4058,21222
2257,14524,26519
14,50,180
4584,24037,47648
4234,20992,65032
3,0,21
7387,26365,114004
4665,35646,45895
3243,21587,18214
6,17,34
3249,21180,56071
1452,14308,15373
622,2740,8942
7239,39526,88500
3227,25719,36318
3901,13639,77781
3259,19621,42912
2787,17445,22626
4007,18694,74077
4116,18874,72772
859,8585,4366
1637,7212,27150
2898,5803,66527
2025,8598,35889
7,41,39
9041,46103,94096
4413,36364,49549
9570,47077,114670
5028,34633,31027
4559,21688,77281
540,2602,258
634,4185,8348
3936,19102,57801
6028,30280,45899
981,10874,2425
2483,16506,34228
1071,5868,20079
3223,21072,22381
1421,4174,29381
478,2610,9220
2977,15490,57727
3555,19334,35312
5628,38211,36321
2983,6003,68162
5507,45883,48564
1026,2184,23266
1849,15726,24317
27,156,165
1337,4470,28679
4552,21627,45375
650,9208,5088
3742,19810,58526
2747,7674,30406
5086,40626,42310
1042,4196,21416
5296,22022,95814
4605,24331,52357
5700,30574,100519
2338,12170,37618
9364,67999,84131
2205,17850,21471
15288,99464,83100
12807,77032,108048
4888,13253,101742
1010,4038,21122
9522,69483,67992
1718,14927,27903
1887,7563,39458
58,657,533
9510,57373,96835
8371,53173,77020
4008,21638,55450
5453,30966,58745
8326,60490,44809
4622,13458,97596
3342,24858,56490
1255,5515,25725
3294,28873,23973
7966,49984,93116
4127,11690,73537
6614,31246,105938
6968,46412,56602
3852,21125,46279
4975,27921,72713
2934,10281,62381
11720,67684,75846
6912,30662,110036
5409,24984,80415
4016,18389,81305
2440,14246,34525
8144,32427,116753
7,14,57
4572,33443,44088
9195,49616,83958
3111,11871,59964
9776,76145,62516
5870,36480,59168
4102,31157,65848
2771,14594,18465
3677,26200,39602
1013,6051,19154
33,225,334
1516,4042,33752
7237,47352,105863
10343,72931,49589
4058,15496,57240
26,237,329
7130,25267,82722
4344,23860,61874
6664,30195,105335
4856,35170,51618
2228,16694,27598
2026,14023,29944
4458,33196,40824
2502,19214,28936
1355,11234,19695
4512,29009,47559
6516,36551,80082
3952,18650,62394
8876,52484,96820
1601,7476,23290
11832,49020,149730
1488,4054,31552
3805,26165,30052
65,454,675
6,10,50
7874,36949,105268
3438,12619,65865
3635,8544,61563
5483,20926,98713
8742,47924,122447
2525,15124,41833
16715,85606,140806
2830,10434,45222
9341,22477,147904
5027,40669,29664
11047,73435,55704
1678,9221,32639
3766,28133,47511
4024,20738,61867
12955,48176,168913
8418,58744,84100
2046,12928,7782
2130,7100,41788
5442,29021,98535
1685,13739,20118
2375,8337,48142
13218,77992,119813
1314,5852,23840
1729,13577,22368
4725,31295,49404
10763,56682,133873
8964,49926,92595
11735,70636,109840
3517,16016,37971
2620,20085,13763
1009,8536,16604
1875,13512,16296
5689,22311,91815
6,9,42
4478,30294,24936
5022,33306,32682
13069,80178,101960
2180,13524,39022
3578,35865,18501
4828,34136,74710
1894,12658,34411
8497,57458,68054
8,15,65
8,14,66
7110,43396,63448
2191,15107,29134
1555,9028,16513
5747,35022,71213
1014,5057,20193
722,4282,11448
4892,23159,92819
9260,49101,86835
2858,20447,48081
6666,46471,74109
5725,36264,41356
4344,34673,46825
4753,23043,61548
11993,61900,120845
11577,50057,172574
2791,15382,48229
10118,43589,118202
1526,14211,19265
4578,30533,64995
10381,69110,105028
5487,34971,74340
3778,10653,83525
5093,33360,61342
15,68,113
5086,42182,47536
3463,19614,55193
2635,17878,19016
5337,37558,51437
17622,81606,189272
8311,40315,84372
498,7690,4512
3483,24229,49172
6640,20108,116680
15401,87140,126561
28,91,495
1976,4454,44860
7246,23949,89087
15,45,207
2641,14338,19214
14,60,170
1898,7581,39794
10428,48633,100647
1949,4379,44226
2516,18871,18145
5351,33425,69126
2896,8686,63644
17618,102046,146512
9203,67075,49658
1130,3070,25060
6532,37928,102056
8,17,63
1892,17905,29246
17246,101156,127536
8460,40489,114979
1024,8090,17291
31,277,312
3719,12825,80085
5,9,30
8044,57036,69204
7897,38684,109583
1633,20440,14503
2834,17943,44379
8192,58914,101804
3163,11775,67269
3559,28801,50719
5903,38659,85281
6,12,44
1535,5691,32528
2105,16316,24523
1518,6057,31773
4244,24189,34625
6610,42256,67796
2952,22358,46048
8,37,43
1802,9944,31651
5169,36111,80174
21,107,254
4442,31873,62767
8757,42484,143065
7424,36657,98615
1039,9758,16037
