Initialize SIGNATURE TABLE
ST_SET: 1
ST_WAY: 256
ST_TAG_BIT: 16
ST_TAG_MASK: ffff

Initialize PATTERN TABLE
PT_SET: 512
PT_WAY: 4
SIG_DELTA_BIT: 7
C_SIG_BIT: 4
C_DELTA_BIT: 4

Initialize PREFETCH FILTER
FILTER_SET: 1024

*** ChampSim Multicore Out-of-Order Simulator ***

Warmup Instructions: 50000000
Simulation Instructions: 50000000
Number of CPUs: 1
LLC sets: 2048
LLC ways: 16
Off-chip DRAM Size: 4096 MB Channels: 1 Width: 64-bit Data Rate: 3200 MT/s

CPU 0 runs /ChampSim-master-BTBX/dpc3_traces/server_024.champsimtrace.xz
Basic BTB sets: 4096 ways: 4 indirect buffer size: 4096 RAS size: 64
CPU 0 L1D next line prefetcher
Heartbeat CPU 0 instructions: 10000000 cycles: 3500526 heartbeat IPC: 2.85671 cumulative IPC: 2.85671 (Simulation time: 0 hr 0 min 18 sec) 
Heartbeat CPU 0 instructions: 20000002 cycles: 6994249 heartbeat IPC: 2.86228 cumulative IPC: 2.85949 (Simulation time: 0 hr 0 min 36 sec) 
Heartbeat CPU 0 instructions: 30000000 cycles: 10498094 heartbeat IPC: 2.85401 cumulative IPC: 2.85766 (Simulation time: 0 hr 0 min 55 sec) 
Heartbeat CPU 0 instructions: 40000000 cycles: 13999264 heartbeat IPC: 2.85619 cumulative IPC: 2.85729 (Simulation time: 0 hr 1 min 13 sec) 
Heartbeat CPU 0 instructions: 50000001 cycles: 17489970 heartbeat IPC: 2.86475 cumulative IPC: 2.85878 (Simulation time: 0 hr 1 min 31 sec) 

Warmup complete CPU 0 instructions: 50000001 cycles: 17489970 (Simulation time: 0 hr 1 min 31 sec) 

Heartbeat CPU 0 instructions: 60000001 cycles: 30848886 heartbeat IPC: 0.748564 cumulative IPC: 0.748564 (Simulation time: 0 hr 1 min 49 sec) 
Heartbeat CPU 0 instructions: 70000000 cycles: 44275845 heartbeat IPC: 0.74477 cumulative IPC: 0.746662 (Simulation time: 0 hr 2 min 6 sec) 
*** Reached end of trace for Core: 0 Repeating trace: /ChampSim-master-BTBX/dpc3_traces/server_024.champsimtrace.xz
Heartbeat CPU 0 instructions: 80000001 cycles: 57539105 heartbeat IPC: 0.753963 cumulative IPC: 0.74908 (Simulation time: 0 hr 2 min 24 sec) 
Heartbeat CPU 0 instructions: 90000003 cycles: 70968078 heartbeat IPC: 0.744659 cumulative IPC: 0.74797 (Simulation time: 0 hr 2 min 42 sec) 
Heartbeat CPU 0 instructions: 100000002 cycles: 84516929 heartbeat IPC: 0.73807 cumulative IPC: 0.745969 (Simulation time: 0 hr 3 min 0 sec) 
Finished CPU 0 instructions: 50000001 cycles: 67026959 cumulative IPC: 0.745968 (Simulation time: 0 hr 3 min 0 sec) 

ChampSim completed all CPUs

Region of Interest Statistics

CPU 0
XXX cumulative-IPC 0.745968
XXX instructions 50000001
XXX cycles 67026959
L1D TOTAL     ACCESS:   22135107  HIT:   20614531  MISS:    1520576
L1D LOAD      ACCESS:    8103757  HIT:    7436138  MISS:     667619
L1D RFO       ACCESS:    6248468  HIT:    5976149  MISS:     272319
L1D PREFETCH  ACCESS:    7782882  HIT:    7202244  MISS:     580638
L1D WRITEBACK ACCESS:          0  HIT:          0  MISS:          0
L1D PREFETCH  REQUESTED:    8161953  ISSUED:    8053551
XXX L1D-USEFUL 150993
XXX L1D-USELESS 429647
L1D AVERAGE MISS LATENCY: 25.8777 cycles
L1I TOTAL     ACCESS:   13572062  HIT:   10505511  MISS:    3066551
L1I LOAD      ACCESS:    9001537  HIT:    7398713  MISS:    1602824
L1I RFO       ACCESS:          0  HIT:          0  MISS:          0
L1I PREFETCH  ACCESS:    4570525  HIT:    3106798  MISS:    1463727
L1I WRITEBACK ACCESS:          0  HIT:          0  MISS:          0
L1I PREFETCH  REQUESTED:    7031577  ISSUED:    7031577
XXX L1I-USEFUL 945495
XXX L1I-USELESS 518241
L1I AVERAGE MISS LATENCY: 13.1096 cycles
L2C TOTAL     ACCESS:    6429986  HIT:    5446946  MISS:     983040
L2C LOAD      ACCESS:    1335320  HIT:    1101489  MISS:     233831
L2C RFO       ACCESS:     270273  HIT:     170010  MISS:     100263
L2C PREFETCH  ACCESS:    4303889  HIT:    3658296  MISS:     645593
L2C WRITEBACK ACCESS:     520504  HIT:     517151  MISS:       3353
L2C PREFETCH  REQUESTED:    4066142  ISSUED:    4065919
XXX L2C-USEFUL 74966
XXX L2C-USELESS 569183
L2C AVERAGE MISS LATENCY: 39.5855 cycles
LLC TOTAL     ACCESS:    1969227  HIT:    1918561  MISS:      50666
LLC LOAD      ACCESS:     233493  HIT:     228201  MISS:       5292
LLC RFO       ACCESS:     100262  HIT:      78048  MISS:      22214
LLC PREFETCH  ACCESS:    1465253  HIT:    1442235  MISS:      23018
LLC WRITEBACK ACCESS:     170219  HIT:     170077  MISS:        142
LLC PREFETCH  REQUESTED:          0  ISSUED:          0
XXX LLC-USEFUL 2041
XXX LLC-USELESS 20783
LLC AVERAGE MISS LATENCY: 181.556 cycles
Major fault: 0 Minor fault: 2372
XXX disp-0 2080287
XXX disp-1 0
XXX disp-2 2038
XXX disp-3 494784
XXX disp-4 1128329
XXX disp-5 1096245
XXX disp-6 1467855
XXX disp-7 716155
XXX disp-8 732525
XXX disp-9 417905
XXX disp-10 285607
XXX disp-11 204970
XXX disp-12 113454
XXX disp-13 124720
XXX disp-14 113765
XXX disp-15 132446
XXX disp-16 57565
XXX disp-17 70830
XXX disp-18 133270
XXX disp-19 123825
XXX disp-20 133266
XXX disp-21 261692
XXX disp-22 168097
XXX disp-23 320654
XXX disp-24 112766
XXX disp-25 0
XXX disp-26 0
XXX disp-27 0
XXX disp-28 0
XXX disp-29 0
XXX disp-30 0
XXX disp-31 0
XXX disp-32 0
XXX disp-33 0
XXX disp-34 0
XXX disp-35 0
XXX disp-36 0
XXX disp-37 0
XXX disp-38 0
XXX disp-39 0
XXX disp-40 0
XXX disp-41 0
XXX disp-42 0
XXX disp-43 0
XXX disp-44 0
XXX disp-45 0
XXX disp-46 287796
XXX disp-47 0
XXX disp-48 0
XXX disp-49 0
XXX disp-50 0
XXX disp-51 0
XXX disp-52 0
XXX disp-53 0
XXX disp-54 0
XXX disp-55 0
XXX disp-56 0
XXX disp-57 0
XXX disp-58 0
XXX disp-59 0
XXX disp-60 0
XXX disp-61 0
XXX disp-62 0
XXX disp-63 2
XXX disp-64 0
XXX disp-65 0
XXX diffBits-0 2080287
XXX diffBits-1 1348
XXX diffBits-2 187496
XXX diffBits-3 704529
XXX diffBits-4 748696
XXX diffBits-5 907547
XXX diffBits-6 755190
XXX diffBits-7 1154011
XXX diffBits-8 506027
XXX diffBits-9 584725
XXX diffBits-10 520885
XXX diffBits-11 295505
XXX diffBits-12 180066
XXX diffBits-13 166717
XXX diffBits-14 53024
XXX diffBits-15 94743
XXX diffBits-16 133082
XXX diffBits-17 104343
XXX diffBits-18 78274
XXX diffBits-19 105716
XXX diffBits-20 295059
XXX diffBits-21 250468
XXX diffBits-22 370031
XXX diffBits-23 0
XXX diffBits-24 0
XXX diffBits-25 215281
XXX diffBits-26 0
XXX diffBits-27 0
XXX diffBits-28 0
XXX diffBits-29 0
XXX diffBits-30 0
XXX diffBits-31 0
XXX diffBits-32 0
XXX diffBits-33 0
XXX diffBits-34 0
XXX diffBits-35 0
XXX diffBits-36 0
XXX diffBits-37 0
XXX diffBits-38 0
XXX diffBits-39 0
XXX diffBits-40 0
XXX diffBits-41 0
XXX diffBits-42 0
XXX diffBits-43 0
XXX diffBits-44 0
XXX diffBits-45 287796
XXX diffBits-46 0
XXX diffBits-47 0
XXX diffBits-48 0
XXX diffBits-49 0
XXX diffBits-50 0
XXX diffBits-51 0
XXX diffBits-52 0
XXX diffBits-53 0
XXX diffBits-54 0
XXX diffBits-55 0
XXX diffBits-56 0
XXX diffBits-57 0
XXX diffBits-58 0
XXX diffBits-59 0
XXX diffBits-60 0
XXX diffBits-61 0
XXX diffBits-62 2
XXX diffBits-63 0
XXX diffBits-64 0
XXX diffBits-65 0
CPU 0 L1D next line prefetcher final stats

DRAM Statistics
 CHANNEL 0
 RQ ROW_BUFFER_HIT:      17103  ROW_BUFFER_MISS:      33414
 DBUS_CONGESTED:      34764
 WQ ROW_BUFFER_HIT:       2486  ROW_BUFFER_MISS:      23231  FULL:          0

 AVG_CONGESTED_CYCLE: 6

CPU 0 Branch Prediction Accuracy: 80.7964% MPKI: 35.1278 Average ROB Occupancy at Mispredict: 38.4486

XXX total_mispredicts 1756392
XXX total_target_mispredicts1 1295709
XXX total_target_mispredicts2 311348
XXX total_direction_mispredicts 149335
XXX mispredict_on_btb_hit 523321
XXX NOT_BRANCH: 0
XXX BRANCH_DIRECT_JUMP: 18373
XXX BRANCH_INDIRECT: 17526
XXX BRANCH_CONDITIONAL: 0
XXX BRANCH_DIRECT_CALL: 11033
XXX BRANCH_INDIRECT_CALL: 15021
XXX BRANCH_RETURN: 461368
XXX BRANCH_OTHER: 0
Branch types
NOT_BRANCH: 40853534 81.7071%
BRANCH_DIRECT_JUMP: 566811 1.13362%
BRANCH_INDIRECT: 197171 0.394342%
BRANCH_CONDITIONAL: 6308387 12.6168%
BRANCH_DIRECT_CALL: 876399 1.7528%
BRANCH_INDIRECT_CALL: 160491 0.320982%
BRANCH_RETURN: 1036885 2.07377%
BRANCH_OTHER: 0 0%

XXX BTB_reads: 21065995
XXX BTB_writes: 1070836
XXX PageBTB_reads: 0
XXX PageBTB_writes: 0
XXX PageBTB_readsBeforeWrite: 0
XXX RegionBTB_reads: 0
XXX RegionBTB_writes: 0
XXX RegionBTB_readsBeforeWrite: 0
XXX BTB_4D_Hits 776271
XXX BTB_6D_Hits 733501
XXX BTB_8D_Hits 962382
XXX BTB_12D_Hits 408592
XXX BTB_18D_Hits 207956
XXX BTB_25D_Hits 163362
XXX BTB_46D_Hits 88874
XXX BTB_Ret_Hits 974645
XXX BTB_4D_Misses 43233
XXX BTB_6D_Misses 37938
XXX BTB_8D_Misses 109728
XXX BTB_12D_Misses 112240
XXX BTB_18D_Misses 98905
XXX BTB_25D_Misses 213410
XXX BTB_46D_Misses 393142
XXX BTB_Ret_Misses 62240
XXX Num_unique_branches 10368
total instructions: 0
wc,tif,trb
4328,10166,97352
3999,22415,46870
2511,16443,24404
2983,21555,39998
1731,8299,34850
2211,19715,22891
4504,24943,61775
5933,25080,106397
5186,38685,57817
4129,29850,52117
2864,24529,25059
12137,67365,128712
24,125,327
2528,14876,36570
893,4051,16757
2261,11068,32179
1557,12472,20717
694,2774,14456
4281,17489,85335
707,5906,9591
7103,50346,66044
26,168,370
6642,41801,57160
4379,19236,69994
5216,22595,86293
6859,50647,48808
2864,20623,21124
2657,10628,55643
3111,9764,63750
547,3517,10118
6277,29259,105546
2429,19340,35803
2455,19253,22996
1436,10178,18860
5467,25194,83697
1177,8062,13143
4083,12944,84912
7780,39113,117831
3594,14637,63568
2182,4757,49673
11,61,88
1979,18728,15594
670,2727,13821
2076,10364,41455
4114,24088,55763
6383,44184,30236
1134,6109,15551
3672,12356,75432
4903,20257,71555
5409,30700,64183
10,63,96
7411,40829,78904
4438,12107,77169
8,32,48
3602,21350,36107
3890,14425,78527
3410,23628,51334
16,50,150
2742,12732,48455
7,16,39
1156,1732,27036
7531,33689,93132
7761,47338,93385
6,5,66
2376,9216,41644
8797,51578,86220
7346,32555,88479
3303,23602,48828
2892,20083,35194
4417,24004,53961
3245,16572,56125
4848,35390,54371
2359,15936,36488
3503,23908,35972
1846,8609,37117
1437,12050,17824
4840,16655,78241
6013,38410,54634
3894,18216,67364
9361,45977,115014
3094,31692,34798
733,3386,12636
5692,17106,114760
1072,10866,4662
3634,21350,58730
9,38,87
2129,6856,41842
7680,41906,89534
4530,28540,41536
1651,10214,10544
7183,48960,62726
2073,5524,42081
2469,10710,46799
2107,14749,33545
4529,22678,75727
7803,42828,84525
3627,12977,65172
4296,27105,30526
7855,48734,114758
2940,11655,37816
3004,6462,60110
6097,29483,84314
1316,1981,30799
13201,69641,122465
703,2481,14920
1432,6111,28953
9574,67527,101332
4993,18375,72778
3873,19465,71054
8002,51058,73343
3239,15529,65070
7419,41678,104974
1364,6776,27132
8221,41823,69979
302,3695,3723
1002,4835,19638
2076,6563,41096
5615,48795,51520
2311,8491,43378
6949,40714,37075
5909,35776,64709
6910,33321,93476
1120,4983,22165
5838,42856,52395
2767,13815,44861
1829,15247,24534
2450,12106,34421
2592,18241,38019
6037,29152,108950
2219,12581,29950
2111,15584,13929
8865,72310,41434
7249,52440,60967
1193,2549,26937
7,14,59
2469,16564,35155
692,4813,12399
1044,4907,10797
6507,40614,50173
916,3070,17038
999,7421,12831
573,114,13803
1079,5101,19252
2893,6485,64336
3747,20832,43990
6302,43159,71207
1392,5591,29069
1447,8301,13991
6419,40835,44870
4066,27720,43664
12482,66083,145593
8851,48108,101305
26,265,245
2853,18441,41137
16,66,166
2770,11073,49832
4386,22065,58969
499,3645,8674
3689,17505,57634
3545,26306,40747
12,71,97
1359,6085,27778
3604,19775,47051
3665,18096,63611
754,1322,16710
257,496,1586
922,5000,17806
2080,12460,33234
7379,46495,69884
1186,6255,20263
2192,16082,18950
1320,4612,28309
7507,40525,71427
20,97,315
25,110,415
1810,12784,13830
2340,7144,51267
725,5326,12485
689,4,17175
5113,24381,76224
317,1771,5710
2962,20999,47592
6,12,24
697,2435,14824
5998,36913,47775
1251,12133,13473
642,5921,8889
1831,18304,18386
3317,14939,60014
4316,23554,72789
18,30,322
6817,45781,60531
6111,24369,74128
7,14,57
1048,5247,16767
2373,13386,19503
4992,38383,36303
3201,22547,31045
3472,31177,22561
1766,11524,32382
1486,5493,30015
5556,28762,67682
23,181,144
3186,25474,29614
2567,15268,38865
1741,16048,18815
1389,2776,31829
2332,14309,19346
8,39,53
7658,58706,46475
709,3566,14009
9,29,112
227,1530,3316
3750,26063,39183
1062,3256,23128
906,5534,13030
7951,63592,42309
562,1615,11101
1221,10527,17729
297,890,6469
2422,21777,24199
8,25,55
1389,5547,29052
5722,33226,79567
1612,4479,31623
3515,19980,24952
1975,8534,35931
4487,13600,72703
1091,3344,23575
7155,34800,85679
22,73,305
335,1335,6956
5160,25471,66991
5090,31934,49297
744,5641,12811
6384,34796,77596
4863,8382,99447
4245,24516,49897
2711,17325,37472
6476,20905,136555
1758,16656,24671
235,690,3722
3039,15073,26739
788,7178,7912
7873,56781,49325
3679,26327,41735
5456,30445,49958
1064,5424,18905
3429,33567,44262
3769,9421,74716
461,1807,9486
2369,9580,34997
1795,13808,19531
6684,30932,82588
18,42,269
2319,9311,48390
9058,48310,91724
2936,16536,40568
437,2200,4567
2520,4848,57394
2706,10823,56673
858,3438,17905
1745,10735,20640
14,54,190
2783,9889,33731
3157,15239,50606
5,14,37
5992,22452,95189
3689,27258,38899
4317,34952,24159
7,37,39
1404,5909,29065
717,7807,9973
624,2757,8987
7016,40131,85229
1679,11508,18285
2813,9976,56631
3674,22956,50792
870,5433,6258
2658,11015,50797
4520,23900,74947
369,2768,1815
1243,5237,20152
2699,5392,61969
2168,9356,40098
8,41,39
8646,41248,91828
3987,32252,42056
8536,36806,112386
5606,40609,37557
3326,14275,56917
382,2018,186
319,1195,2247
3307,16286,50639
5666,28345,52506
1278,13698,4426
1359,9358,19452
1268,6938,23938
3139,18317,36696
1722,4498,36414
300,1631,5749
3125,14740,57593
2820,15875,32671
6198,41622,38054
3274,6130,75300
3915,30916,34365
1385,2870,31601
1272,10819,16647
26,233,117
1119,3391,24368
3123,15125,30934
2441,16019,14007
2863,14605,30346
2275,7535,26302
4524,34713,34627
731,2970,14765
4450,16688,83354
3042,16822,35723
4988,26932,87962
2455,16162,38239
8424,60423,79018
1567,12527,16196
12667,79049,83386
10479,63898,87890
4723,13157,100045
692,2764,14446
4669,36087,52999
1171,10243,18633
1319,5278,27577
17,171,134
7631,45408,68273
6351,41899,58916
1855,7744,30657
3987,25048,47230
8393,59159,44878
4856,14457,99815
2024,15756,33694
1548,6889,31680
2537,22170,18557
7490,45719,95721
3416,10308,65166
5189,22890,88026
5086,33837,42448
3191,17481,39534
5375,28883,74115
2403,9084,45103
8104,59300,49889
5656,31708,89096
4263,19273,64550
3800,16529,77851
2286,11551,38685
6976,27023,107541
8,23,57
3271,25035,36734
6222,33481,56851
2220,8329,42743
8416,65479,57949
3468,23399,44814
3167,16666,45354
2453,18255,20240
2487,17841,26217
694,4136,13094
103,647,898
1730,5534,37610
5697,33682,86901
5654,40461,34984
3089,11141,46284
8,46,80
5246,21972,61454
2899,16300,39587
4447,20832,83287
5107,39971,53238
1593,12590,20097
3139,20581,28076
3199,23311,28828
2257,13941,22559
10,36,82
4263,28853,44938
5995,31060,82120
3399,16811,56798
7624,48848,80768
2589,9647,44399
10350,44093,136302
825,1718,18779
4191,34341,32208
301,2639,3359
9,25,94
6390,30445,89803
2745,10227,57686
2971,6767,51744
4742,18217,88033
6619,36860,93695
2429,7141,42846
10732,65218,101603
1417,5600,29123
7262,17269,120541
3994,33279,25022
7863,52662,40083
1254,6880,24344
2163,14658,24835
1897,10048,30507
9220,41186,129668
7653,57128,74519
1814,12390,8098
2167,8606,42791
4302,21805,80137
1266,9811,14285
2009,8608,37451
9811,65609,98934
725,2630,15011
1233,9702,16355
3274,23604,34206
9688,53194,121238
7132,44737,74258
9498,59761,91241
3645,16903,43854
1851,14809,9831
818,5774,13841
1326,7889,11631
5089,19315,87143
6,9,42
3669,25051,22318
3605,24326,24755
8970,61415,71601
679,1836,13659
5441,49753,25883
2673,15754,48621
26,58,266
4076,30870,32066
7,15,61
10,19,69
3170,25087,29963
1372,8555,19067
1144,6889,12007
4904,23257,61435
1389,6932,27693
461,2729,7300
4018,18107,77701
5338,23247,38683
2833,18073,46144
4401,31031,48680
4819,32047,35826
3160,27442,31576
4219,23202,55935
9851,53059,104645
11618,46780,167550
3268,17957,55727
8456,31039,103554
291,2639,3626
4328,29670,61722
7920,55496,86972
4489,31472,61959
3166,9079,69892
4281,28123,50683
17,79,130
4055,29268,47447
3173,21584,45297
1964,14032,15172
3226,24309,35957
13476,60539,155345
7272,40455,76631
525,7485,4846
2395,16997,34070
5997,18728,110223
14284,78552,119695
18,94,166
1374,3037,31227
10005,39593,107210
11,28,136
3923,23672,25690
18,74,256
1339,5390,27966
7884,42984,80304
2563,6387,51608
1770,13134,12814
4859,32309,62286
2703,8114,59363
16543,95893,134993
6401,45165,35084
2126,9406,39650
5241,32193,82323
149,874,2677
1326,12497,20422
14278,79960,119987
5502,18233,89972
1405,11117,23723
427,4455,3042
3432,12209,73496
5,13,33
6448,39641,54071
6035,25159,92666
139,1400,1453
690,3093,14113
7476,54866,91588
2368,8960,50209
4709,29310,67008
5343,32200,72762
41,319,398
1920,7185,40413
1863,14424,19790
1740,6599,36671
4629,31520,41025
4792,33432,59884
2728,21094,43186
31,252,211
2487,13678,43598
2494,14734,42848
20,97,235
3794,27242,53744
9224,41932,150212
6610,32050,93197
2589,25496,34091
