Initialize SIGNATURE TABLE
ST_SET: 1
ST_WAY: 256
ST_TAG_BIT: 16
ST_TAG_MASK: ffff

Initialize PATTERN TABLE
PT_SET: 512
PT_WAY: 4
SIG_DELTA_BIT: 7
C_SIG_BIT: 4
C_DELTA_BIT: 4

Initialize PREFETCH FILTER
FILTER_SET: 1024

*** ChampSim Multicore Out-of-Order Simulator ***

Warmup Instructions: 50000000
Simulation Instructions: 50000000
Number of CPUs: 1
LLC sets: 2048
LLC ways: 16
Off-chip DRAM Size: 4096 MB Channels: 1 Width: 64-bit Data Rate: 3200 MT/s

CPU 0 runs /ChampSim-master-BTBX/dpc3_traces/server_013.champsimtrace.xz
Basic BTB sets: 4096 ways: 4 indirect buffer size: 4096 RAS size: 64
CPU 0 L1D next line prefetcher
Heartbeat CPU 0 instructions: 10000000 cycles: 3210423 heartbeat IPC: 3.11485 cumulative IPC: 3.11485 (Simulation time: 0 hr 0 min 17 sec) 
Heartbeat CPU 0 instructions: 20000001 cycles: 6409482 heartbeat IPC: 3.12592 cumulative IPC: 3.12038 (Simulation time: 0 hr 0 min 35 sec) 
Heartbeat CPU 0 instructions: 30000002 cycles: 9612250 heartbeat IPC: 3.1223 cumulative IPC: 3.12102 (Simulation time: 0 hr 0 min 52 sec) 
Heartbeat CPU 0 instructions: 40000002 cycles: 12810908 heartbeat IPC: 3.12631 cumulative IPC: 3.12234 (Simulation time: 0 hr 1 min 9 sec) 
Heartbeat CPU 0 instructions: 50000000 cycles: 16009223 heartbeat IPC: 3.12665 cumulative IPC: 3.1232 (Simulation time: 0 hr 1 min 27 sec) 

Warmup complete CPU 0 instructions: 50000004 cycles: 16009224 (Simulation time: 0 hr 1 min 27 sec) 

Heartbeat CPU 0 instructions: 60000000 cycles: 28488616 heartbeat IPC: 0.801321 cumulative IPC: 0.801321 (Simulation time: 0 hr 1 min 45 sec) 
Heartbeat CPU 0 instructions: 70000002 cycles: 41193196 heartbeat IPC: 0.787118 cumulative IPC: 0.794156 (Simulation time: 0 hr 2 min 3 sec) 
Heartbeat CPU 0 instructions: 80000003 cycles: 53252644 heartbeat IPC: 0.829225 cumulative IPC: 0.805511 (Simulation time: 0 hr 2 min 21 sec) 
Heartbeat CPU 0 instructions: 90000003 cycles: 65558337 heartbeat IPC: 0.812632 cumulative IPC: 0.80728 (Simulation time: 0 hr 2 min 40 sec) 
Heartbeat CPU 0 instructions: 100000003 cycles: 77877996 heartbeat IPC: 0.811711 cumulative IPC: 0.808162 (Simulation time: 0 hr 3 min 0 sec) 
Finished CPU 0 instructions: 50000003 cycles: 61868773 cumulative IPC: 0.808162 (Simulation time: 0 hr 3 min 0 sec) 

ChampSim completed all CPUs

Region of Interest Statistics

CPU 0
XXX cumulative-IPC 0.808162
XXX instructions 50000003
XXX cycles 61868773
L1D TOTAL     ACCESS:   18523656  HIT:   17455430  MISS:    1068226
L1D LOAD      ACCESS:    6861846  HIT:    6372727  MISS:     489119
L1D RFO       ACCESS:    5022102  HIT:    4941471  MISS:      80631
L1D PREFETCH  ACCESS:    6639708  HIT:    6141232  MISS:     498476
L1D WRITEBACK ACCESS:          0  HIT:          0  MISS:          0
L1D PREFETCH  REQUESTED:    6901172  ISSUED:    6798981
XXX L1D-USEFUL 146161
XXX L1D-USELESS 352324
L1D AVERAGE MISS LATENCY: 40.7713 cycles
L1I TOTAL     ACCESS:   13302125  HIT:   11656579  MISS:    1645546
L1I LOAD      ACCESS:    8582828  HIT:    7568919  MISS:    1013909
L1I RFO       ACCESS:          0  HIT:          0  MISS:          0
L1I PREFETCH  ACCESS:    4719297  HIT:    4087660  MISS:     631637
L1I WRITEBACK ACCESS:          0  HIT:          0  MISS:          0
L1I PREFETCH  REQUESTED:    6590692  ISSUED:    6590692
XXX L1I-USEFUL 393082
XXX L1I-USELESS 238524
L1I AVERAGE MISS LATENCY: 17.3361 cycles
L2C TOTAL     ACCESS:    3572816  HIT:    2140182  MISS:    1432634
L2C LOAD      ACCESS:     864575  HIT:     528641  MISS:     335934
L2C RFO       ACCESS:      79434  HIT:      31319  MISS:      48115
L2C PREFETCH  ACCESS:    2352872  HIT:    1305503  MISS:    1047369
L2C WRITEBACK ACCESS:     275935  HIT:     274719  MISS:       1216
L2C PREFETCH  REQUESTED:    2683625  ISSUED:    2683462
XXX L2C-USEFUL 99900
XXX L2C-USELESS 945918
L2C AVERAGE MISS LATENCY: 43.4175 cycles
LLC TOTAL     ACCESS:    2518986  HIT:    2343519  MISS:     175467
LLC LOAD      ACCESS:     335700  HIT:     313416  MISS:      22284
LLC RFO       ACCESS:      48111  HIT:      38057  MISS:      10054
LLC PREFETCH  ACCESS:    1965692  HIT:    1822832  MISS:     142860
LLC WRITEBACK ACCESS:     169483  HIT:     169214  MISS:        269
LLC PREFETCH  REQUESTED:          0  ISSUED:          0
XXX LLC-USEFUL 15225
XXX LLC-USELESS 125069
LLC AVERAGE MISS LATENCY: 163.992 cycles
Major fault: 0 Minor fault: 6207
XXX disp-0 1730863
XXX disp-1 0
XXX disp-2 395
XXX disp-3 1013388
XXX disp-4 812307
XXX disp-5 562502
XXX disp-6 610883
XXX disp-7 627323
XXX disp-8 374116
XXX disp-9 244827
XXX disp-10 219451
XXX disp-11 121777
XXX disp-12 76889
XXX disp-13 53868
XXX disp-14 55899
XXX disp-15 89747
XXX disp-16 46202
XXX disp-17 67975
XXX disp-18 126780
XXX disp-19 113384
XXX disp-20 262194
XXX disp-21 209295
XXX disp-22 212788
XXX disp-23 149420
XXX disp-24 45197
XXX disp-25 89397
XXX disp-26 26654
XXX disp-27 536
XXX disp-28 26276
XXX disp-29 0
XXX disp-30 0
XXX disp-31 0
XXX disp-32 0
XXX disp-33 0
XXX disp-34 0
XXX disp-35 0
XXX disp-36 0
XXX disp-37 0
XXX disp-38 0
XXX disp-39 0
XXX disp-40 0
XXX disp-41 0
XXX disp-42 0
XXX disp-43 0
XXX disp-44 0
XXX disp-45 0
XXX disp-46 0
XXX disp-47 0
XXX disp-48 0
XXX disp-49 0
XXX disp-50 0
XXX disp-51 0
XXX disp-52 0
XXX disp-53 0
XXX disp-54 0
XXX disp-55 0
XXX disp-56 0
XXX disp-57 0
XXX disp-58 0
XXX disp-59 0
XXX disp-60 0
XXX disp-61 0
XXX disp-62 0
XXX disp-63 11
XXX disp-64 0
XXX disp-65 0
XXX diffBits-0 1730863
XXX diffBits-1 128
XXX diffBits-2 295620
XXX diffBits-3 538975
XXX diffBits-4 728807
XXX diffBits-5 699698
XXX diffBits-6 525539
XXX diffBits-7 523170
XXX diffBits-8 340540
XXX diffBits-9 494647
XXX diffBits-10 173832
XXX diffBits-11 104042
XXX diffBits-12 145561
XXX diffBits-13 110446
XXX diffBits-14 41509
XXX diffBits-15 66095
XXX diffBits-16 112255
XXX diffBits-17 65374
XXX diffBits-18 80433
XXX diffBits-19 241687
XXX diffBits-20 226894
XXX diffBits-21 181869
XXX diffBits-22 225872
XXX diffBits-23 173614
XXX diffBits-24 0
XXX diffBits-25 116051
XXX diffBits-26 0
XXX diffBits-27 26812
XXX diffBits-28 0
XXX diffBits-29 0
XXX diffBits-30 0
XXX diffBits-31 0
XXX diffBits-32 0
XXX diffBits-33 0
XXX diffBits-34 0
XXX diffBits-35 0
XXX diffBits-36 0
XXX diffBits-37 0
XXX diffBits-38 0
XXX diffBits-39 0
XXX diffBits-40 0
XXX diffBits-41 0
XXX diffBits-42 0
XXX diffBits-43 0
XXX diffBits-44 0
XXX diffBits-45 0
XXX diffBits-46 0
XXX diffBits-47 0
XXX diffBits-48 0
XXX diffBits-49 0
XXX diffBits-50 0
XXX diffBits-51 0
XXX diffBits-52 0
XXX diffBits-53 0
XXX diffBits-54 0
XXX diffBits-55 0
XXX diffBits-56 0
XXX diffBits-57 0
XXX diffBits-58 0
XXX diffBits-59 0
XXX diffBits-60 0
XXX diffBits-61 0
XXX diffBits-62 11
XXX diffBits-63 0
XXX diffBits-64 0
XXX diffBits-65 0
CPU 0 L1D next line prefetcher final stats

DRAM Statistics
 CHANNEL 0
 RQ ROW_BUFFER_HIT:      28133  ROW_BUFFER_MISS:     147056
 DBUS_CONGESTED:      62448
 WQ ROW_BUFFER_HIT:      11075  ROW_BUFFER_MISS:      52236  FULL:          0

 AVG_CONGESTED_CYCLE: 5

CPU 0 Branch Prediction Accuracy: 89.6023% MPKI: 19.3119 Average ROB Occupancy at Mispredict: 46.6427

XXX total_mispredicts 965593
XXX total_target_mispredicts1 593206
XXX total_target_mispredicts2 248624
XXX total_direction_mispredicts 123763
XXX mispredict_on_btb_hit 318403
XXX NOT_BRANCH: 0
XXX BRANCH_DIRECT_JUMP: 6013
XXX BRANCH_INDIRECT: 23542
XXX BRANCH_CONDITIONAL: 0
XXX BRANCH_DIRECT_CALL: 4111
XXX BRANCH_INDIRECT_CALL: 4390
XXX BRANCH_RETURN: 280347
XXX BRANCH_OTHER: 0
Branch types
NOT_BRANCH: 40713091 81.4262%
BRANCH_DIRECT_JUMP: 463697 0.927394%
BRANCH_INDIRECT: 146542 0.293084%
BRANCH_CONDITIONAL: 6981930 13.9639%
BRANCH_DIRECT_CALL: 665003 1.33001%
BRANCH_INDIRECT_CALL: 165150 0.3303%
BRANCH_RETURN: 864309 1.72862%
BRANCH_OTHER: 0 0%

XXX BTB_reads: 11689839
XXX BTB_writes: 515878
XXX PageBTB_reads: 0
XXX PageBTB_writes: 0
XXX PageBTB_readsBeforeWrite: 0
XXX RegionBTB_reads: 0
XXX RegionBTB_writes: 0
XXX RegionBTB_readsBeforeWrite: 0
XXX BTB_4D_Hits 671049
XXX BTB_6D_Hits 550169
XXX BTB_8D_Hits 597981
XXX BTB_12D_Hits 205222
XXX BTB_18D_Hits 330442
XXX BTB_25D_Hits 274673
XXX BTB_46D_Hits 12241
XXX BTB_Ret_Hits 821534
XXX BTB_4D_Misses 107796
XXX BTB_6D_Misses 29265
XXX BTB_8D_Misses 63673
XXX BTB_12D_Misses 51366
XXX BTB_18D_Misses 36260
XXX BTB_25D_Misses 79109
XXX BTB_46D_Misses 105634
XXX BTB_Ret_Misses 42775
XXX Num_unique_branches 23441
total instructions: 0
wc,tif,trb
1015,5505,15110
2723,17074,17577
1960,16437,10146
2023,10692,21420
475,3331,4376
714,5199,6449
3564,19173,28718
699,4199,5543
749,4881,7717
1403,9477,7930
1192,8024,8075
1477,6699,18951
3640,28390,19268
131,1079,1284
1492,6739,20363
648,4463,5927
2986,17412,21552
526,3657,3709
1906,10766,19039
1442,7784,11850
600,4296,4472
1455,7799,14253
2397,15633,15811
388,2868,3614
1368,8689,11293
356,2119,3455
1577,9020,12630
2031,12866,14813
2076,13182,15625
1085,6103,8755
1582,10986,16290
803,6393,6100
1976,9959,21768
1232,8575,11039
500,2765,8145
1793,15354,6534
1881,10876,14469
1390,9870,8744
313,1174,6297
3692,18393,28195
1522,10164,12300
244,1877,4011
1252,10119,4967
485,3051,5966
3113,13255,23632
2543,13858,24903
1037,6050,9341
2228,13127,22977
1759,12295,10230
2631,16476,16106
1693,10283,11556
2882,17814,20903
533,3770,8221
1193,5712,16037
367,1433,7310
1938,12205,16971
2293,13415,17060
885,4455,11805
524,4497,4903
2456,15869,20215
2351,9946,22956
2722,16820,19154
2141,12430,19659
2684,12317,30709
1777,11790,17439
1798,16624,6929
2032,11331,21791
1495,8334,9700
299,1535,4982
1996,12236,16669
2115,11381,13105
1181,8963,7481
1633,9374,17921
2297,18427,9464
1740,8263,15929
388,2703,5293
311,1691,4234
411,1727,7928
1808,12359,10583
1379,7135,14605
1672,11591,12766
1760,9868,13690
983,6244,10877
3042,16899,23286
4106,23794,27131
672,4680,11786
1220,4877,19265
952,6799,12870
1431,7382,16207
2588,12508,24154
1683,8705,18872
1204,5427,16324
3034,19576,19085
2193,12179,19596
2109,12816,25047
1942,12365,15827
1541,8266,21117
1181,7669,10567
2422,16027,15106
665,2684,13422
2799,16104,19884
1447,7469,14775
1332,8037,11707
1476,9344,11102
3028,16084,20097
1196,5498,16590
1694,11171,13356
277,1223,4785
431,2124,7689
1804,9496,14502
1508,7279,17201
1791,12754,12103
1377,9161,13810
2992,14653,30345
1288,7084,14704
1730,9979,18182
1426,8310,18349
2633,16914,18100
2569,13893,19687
1028,4788,12779
957,8182,5421
2484,15790,16948
1674,8777,24586
2756,19992,19946
1573,9701,18818
2259,13335,19229
775,4648,10215
2787,15011,30256
2676,16051,17770
2502,18037,14654
1170,6143,16217
1909,9522,15977
3175,16337,30024
1883,10141,15107
804,5593,8298
3055,24094,22534
1943,18060,7681
985,4877,11677
1714,9152,19873
1909,9334,14409
411,1956,6098
978,6521,8946
2150,10772,24026
856,4955,12377
2165,14034,10784
2304,13865,16364
604,2619,9593
1961,12919,12506
2255,14755,15201
3140,23085,20197
720,3366,10866
1175,6487,15291
1120,5946,10223
2507,18709,11789
1627,8558,20933
3756,16301,31859
1661,9315,19875
453,2866,4154
2827,13369,32390
1645,8223,16656
2728,18296,16508
1468,7530,19680
2808,16475,21229
2810,21008,17542
3597,18936,27570
354,1718,6467
2215,16207,16142
2923,10183,23228
1838,14314,15387
1161,6555,12986
2157,10693,25172
2420,15782,18269
1551,8242,19178
1538,7207,24396
1144,5284,13459
2108,12475,18948
2072,14211,9936
2844,15527,29386
579,1878,12029
1235,6232,14096
2395,9690,23623
790,5270,11953
1188,6462,13277
2563,10128,22443
1739,11974,16398
2337,11797,23041
2930,18858,16775
1376,7290,12385
1913,15467,11491
1561,6270,22001
986,7370,8060
1089,4416,18212
1838,10863,14686
2594,11786,24734
982,6702,9383
2833,14303,24966
774,4025,10979
1113,3747,15473
580,3321,6455
1482,7325,17697
1115,5864,10539
1909,12467,14774
1470,7556,15953
3065,16298,23207
1756,9573,22541
2371,13698,21303
814,4170,14402
1905,8612,16563
1269,10114,12021
1363,7655,14707
1102,5824,8163
1578,7859,15227
1608,9983,9938
2606,11438,18978
2495,12143,25336
2746,11281,31242
3398,20697,25382
1838,11744,26047
2066,10674,27700
1554,7283,24415
562,3190,8811
3279,23083,19051
1674,7131,16471
4062,24415,32956
2715,17284,19687
2065,15721,10725
620,4722,6972
2831,15009,19319
4146,30620,20890
1695,11722,15807
1038,7163,7304
1347,5237,17820
1479,11207,7042
1962,10262,21068
2267,11563,28332
3788,20779,39696
1110,6690,9112
3538,18076,36782
1919,12429,17216
3008,22353,22162
226,1609,2831
3083,12959,27619
1436,9333,13047
3135,16055,26897
2758,12816,27721
1334,4138,24519
1242,7418,13261
2274,13029,17343
843,6142,7131
3201,19597,18057
2708,16078,17319
2357,8698,23168
1007,5820,16663
1698,11734,6767
1728,10292,18492
3472,18762,43702
2468,12037,18059
1224,8823,10658
2664,18729,15400
596,4888,3666
808,2994,14822
3093,14782,26118
2418,13147,19288
1031,8031,5283
1792,14176,9233
761,3982,6134
859,5126,11184
430,1959,8359
679,3318,7645
884,3818,9859
2232,13224,17696
1070,4957,9737
3348,23657,15857
2011,10578,17953
1669,9101,16576
3150,18111,20484
1990,11403,22262
2409,14122,23231
3418,15559,24661
2582,10695,27226
459,2504,7729
1605,10017,12024
766,4658,11482
4241,23547,26963
2020,15200,11994
1132,4929,11262
1901,12480,15849
912,4426,10816
1013,7147,9091
3556,21157,33710
393,2180,5632
2412,13979,16887
1423,7861,11849
2215,9980,25540
3042,15024,26373
2320,14000,22886
1204,6280,12817
2286,17167,10539
1039,3474,11951
1893,8726,26561
3119,21733,16501
1564,8880,13580
1667,8874,18001
3263,17285,24487
1146,4453,17444
1557,9962,11169
1177,5415,19635
4314,27741,21608
1893,9974,19935
2612,10176,28495
1158,5997,16612
3077,14787,27531
2250,13226,16031
931,5334,13349
823,5311,10702
2526,10833,32444
1653,10796,14549
2224,9122,25338
2672,13974,25708
2462,14271,19932
1923,12722,13096
1178,7450,9456
4323,29507,24532
3671,22681,25013
1077,5422,9592
395,2030,5230
1686,9892,16510
691,3508,8703
1124,4490,15064
2231,13240,13675
2047,12651,15741
2974,16301,26469
960,4808,12555
3010,16235,27916
2962,17119,24093
599,4170,6951
780,3670,14125
1929,9694,21731
1746,11455,13296
438,3437,2789
764,5419,7091
1775,7806,18664
2550,11254,20395
2960,15210,22537
3572,21769,24195
1941,10724,15936
4088,14516,44759
2781,24425,12139
2912,17427,23885
2492,16238,19097
2145,14144,18248
1780,10611,18526
1525,6756,18585
1691,10162,23188
569,2114,8573
2412,17008,14209
615,2570,10228
815,5641,9145
1868,9368,16181
1445,6517,12835
425,2353,4620
2422,14239,18711
2703,11202,29361
1526,9496,14580
995,4416,12908
2417,11271,24634
1842,10753,12096
2225,18082,13133
148,1282,1627
3607,18163,28092
1151,7827,8620
3981,21722,38420
1984,11910,13839
2197,14753,14700
987,5652,15621
1718,10374,17742
2164,14598,11612
2525,19499,13735
1778,10849,14010
1991,12299,14708
1873,11303,16283
1840,10882,14241
520,3390,6676
2203,13399,18655
670,3672,6935
1070,5927,13868
2648,15248,19025
1345,8160,13798
1807,9843,15872
1934,8807,22726
1315,7076,15743
1903,10082,14810
1010,5563,13096
1708,13163,12261
1576,8425,15580
374,1086,7974
930,7261,6885
1119,7578,9990
1343,9462,17361
1808,6512,22717
1748,10560,17077
2553,17643,15526
1168,6913,14079
2477,14396,16925
2239,12881,24898
1238,8868,11530
1850,10583,30970
1678,8568,28096
1879,11092,19891
2374,13156,20570
1504,9082,16793
1826,8565,26128
1865,10801,20321
2433,12684,27403
3283,18218,34436
1709,8732,18035
1306,4984,14795
2127,8763,27735
2371,13060,18044
962,4855,15067
305,2079,3315
604,5031,3780
1838,12489,9616
3833,18460,35072
1996,11109,18531
1418,6498,21084
1515,7239,16970
4328,20432,49148
2938,16069,26645
1895,12312,19123
1323,7441,16752
1523,6890,13140
3284,20506,17848
1600,9597,19472
2163,12500,21724
3644,15752,38206
1876,9999,16896
2497,19504,11694
1013,5002,14265
1162,4170,12001
2122,9685,18936
1574,8028,20262
1623,9781,16735
2461,16994,18823
622,3891,7429
2425,15781,16154
1329,6750,15651
1873,13502,16872
2348,20570,12380
2636,16346,16143
2829,12033,25835
2333,11572,27953
734,2979,8439
2482,14213,18739
1524,8023,10567
1810,12897,11000
2397,13523,25201
699,4583,4676
393,1780,6414
1954,11484,16929
2549,12687,31548
2344,9232,32485
4291,32658,23021
2345,13711,22618
2059,11219,21783
2680,11209,30342
2359,14774,17932
3178,17941,27845
1639,10575,13863
3322,16943,36485
1941,9040,18654
722,4823,6275
2492,11557,27689
1834,10877,19094
2531,14645,37196
1058,5326,12782
1094,5422,12623
3140,19814,21412
1676,10234,14784
706,4255,7110
2455,14620,15900
1520,8648,19418
955,9100,6739
3582,22562,25278
1521,9173,16288
1076,5838,13951
2773,14393,27374
1641,6821,22470
1766,13024,16189
433,2065,3662
521,3144,6563
1654,10548,16233
221,1248,3380
2775,11748,33477
1389,7060,13949
2676,10722,29132
1682,9964,22135
538,3593,5474
4996,28774,41543
2431,15800,16710
771,6283,5866
1067,5402,14876
3351,17866,29043
1367,5909,17274
2421,15498,17909
846,3613,12443
2274,10580,24825
1428,8865,13461
583,3419,7782
2523,13651,21583
1734,13771,21199
1793,12338,20987
