Initialize SIGNATURE TABLE
ST_SET: 1
ST_WAY: 256
ST_TAG_BIT: 16
ST_TAG_MASK: ffff

Initialize PATTERN TABLE
PT_SET: 512
PT_WAY: 4
SIG_DELTA_BIT: 7
C_SIG_BIT: 4
C_DELTA_BIT: 4

Initialize PREFETCH FILTER
FILTER_SET: 1024

*** ChampSim Multicore Out-of-Order Simulator ***

Warmup Instructions: 50000000
Simulation Instructions: 50000000
Number of CPUs: 1
LLC sets: 2048
LLC ways: 16
Off-chip DRAM Size: 4096 MB Channels: 1 Width: 64-bit Data Rate: 3200 MT/s

CPU 0 runs /ChampSim-master-BTBX/dpc3_traces/server_025.champsimtrace.xz
Basic BTB sets: 4096 ways: 4 indirect buffer size: 4096 RAS size: 64
CPU 0 L1D next line prefetcher
Heartbeat CPU 0 instructions: 10000003 cycles: 3528699 heartbeat IPC: 2.83391 cumulative IPC: 2.83391 (Simulation time: 0 hr 0 min 19 sec) 
Heartbeat CPU 0 instructions: 20000000 cycles: 7064050 heartbeat IPC: 2.82857 cumulative IPC: 2.83124 (Simulation time: 0 hr 0 min 37 sec) 
Heartbeat CPU 0 instructions: 30000001 cycles: 10591510 heartbeat IPC: 2.8349 cumulative IPC: 2.83246 (Simulation time: 0 hr 0 min 56 sec) 
Heartbeat CPU 0 instructions: 40000003 cycles: 14125117 heartbeat IPC: 2.82997 cumulative IPC: 2.83184 (Simulation time: 0 hr 1 min 14 sec) 
Heartbeat CPU 0 instructions: 50000001 cycles: 17656463 heartbeat IPC: 2.83178 cumulative IPC: 2.83182 (Simulation time: 0 hr 1 min 33 sec) 

Warmup complete CPU 0 instructions: 50000001 cycles: 17656463 (Simulation time: 0 hr 1 min 33 sec) 

Heartbeat CPU 0 instructions: 60000002 cycles: 31960032 heartbeat IPC: 0.699126 cumulative IPC: 0.699126 (Simulation time: 0 hr 1 min 51 sec) 
Heartbeat CPU 0 instructions: 70000000 cycles: 46383171 heartbeat IPC: 0.69333 cumulative IPC: 0.696216 (Simulation time: 0 hr 2 min 9 sec) 
Heartbeat CPU 0 instructions: 80000002 cycles: 60683151 heartbeat IPC: 0.699302 cumulative IPC: 0.697242 (Simulation time: 0 hr 2 min 27 sec) 
Heartbeat CPU 0 instructions: 90000001 cycles: 73719885 heartbeat IPC: 0.767063 cumulative IPC: 0.713478 (Simulation time: 0 hr 2 min 45 sec) 
Heartbeat CPU 0 instructions: 100000003 cycles: 85628964 heartbeat IPC: 0.839696 cumulative IPC: 0.735592 (Simulation time: 0 hr 3 min 3 sec) 
Finished CPU 0 instructions: 50000002 cycles: 67972501 cumulative IPC: 0.735592 (Simulation time: 0 hr 3 min 3 sec) 

ChampSim completed all CPUs

Region of Interest Statistics

CPU 0
XXX cumulative-IPC 0.735592
XXX instructions 50000002
XXX cycles 67972501
L1D TOTAL     ACCESS:   22610355  HIT:   21181892  MISS:    1428463
L1D LOAD      ACCESS:    8210835  HIT:    7605145  MISS:     605690
L1D RFO       ACCESS:    6492676  HIT:    6244507  MISS:     248169
L1D PREFETCH  ACCESS:    7906844  HIT:    7332240  MISS:     574604
L1D WRITEBACK ACCESS:          0  HIT:          0  MISS:          0
L1D PREFETCH  REQUESTED:    8253086  ISSUED:    8095825
XXX L1D-USEFUL 144694
XXX L1D-USELESS 429905
L1D AVERAGE MISS LATENCY: 23.911 cycles
L1I TOTAL     ACCESS:   14400815  HIT:   11416142  MISS:    2984673
L1I LOAD      ACCESS:    9191866  HIT:    7630232  MISS:    1561634
L1I RFO       ACCESS:          0  HIT:          0  MISS:          0
L1I PREFETCH  ACCESS:    5208949  HIT:    3785910  MISS:    1423039
L1I WRITEBACK ACCESS:          0  HIT:          0  MISS:          0
L1I PREFETCH  REQUESTED:    7601199  ISSUED:    7601199
XXX L1I-USEFUL 916167
XXX L1I-USELESS 506893
L1I AVERAGE MISS LATENCY: 13.3324 cycles
L2C TOTAL     ACCESS:    6192713  HIT:    5218966  MISS:     973747
L2C LOAD      ACCESS:    1270607  HIT:    1048459  MISS:     222148
L2C RFO       ACCESS:     245412  HIT:     158396  MISS:      87016
L2C PREFETCH  ACCESS:    4179926  HIT:    3518719  MISS:     661207
L2C WRITEBACK ACCESS:     496768  HIT:     493392  MISS:       3376
L2C PREFETCH  REQUESTED:    4004223  ISSUED:    4003874
XXX L2C-USEFUL 59944
XXX L2C-USELESS 599772
L2C AVERAGE MISS LATENCY: 36.0131 cycles
LLC TOTAL     ACCESS:    1977298  HIT:    1949140  MISS:      28158
LLC LOAD      ACCESS:     222050  HIT:     219034  MISS:       3016
LLC RFO       ACCESS:      87016  HIT:      76251  MISS:      10765
LLC PREFETCH  ACCESS:    1511363  HIT:    1497118  MISS:      14245
LLC WRITEBACK ACCESS:     156869  HIT:     156737  MISS:        132
LLC PREFETCH  REQUESTED:          0  ISSUED:          0
XXX LLC-USEFUL 1120
XXX LLC-USELESS 12202
LLC AVERAGE MISS LATENCY: 166.55 cycles
Major fault: 0 Minor fault: 2465
XXX disp-0 2309710
XXX disp-1 0
XXX disp-2 1822
XXX disp-3 454202
XXX disp-4 1138005
XXX disp-5 1119362
XXX disp-6 1126531
XXX disp-7 791950
XXX disp-8 622428
XXX disp-9 491683
XXX disp-10 295404
XXX disp-11 228816
XXX disp-12 108773
XXX disp-13 138307
XXX disp-14 133041
XXX disp-15 171531
XXX disp-16 75315
XXX disp-17 59919
XXX disp-18 155354
XXX disp-19 111936
XXX disp-20 126164
XXX disp-21 262114
XXX disp-22 163109
XXX disp-23 395477
XXX disp-24 119807
XXX disp-25 0
XXX disp-26 0
XXX disp-27 0
XXX disp-28 0
XXX disp-29 0
XXX disp-30 0
XXX disp-31 0
XXX disp-32 0
XXX disp-33 0
XXX disp-34 0
XXX disp-35 0
XXX disp-36 0
XXX disp-37 0
XXX disp-38 0
XXX disp-39 0
XXX disp-40 0
XXX disp-41 0
XXX disp-42 0
XXX disp-43 0
XXX disp-44 0
XXX disp-45 0
XXX disp-46 281602
XXX disp-47 0
XXX disp-48 0
XXX disp-49 0
XXX disp-50 0
XXX disp-51 0
XXX disp-52 0
XXX disp-53 0
XXX disp-54 0
XXX disp-55 0
XXX disp-56 0
XXX disp-57 0
XXX disp-58 0
XXX disp-59 0
XXX disp-60 0
XXX disp-61 0
XXX disp-62 0
XXX disp-63 1
XXX disp-64 0
XXX disp-65 0
XXX diffBits-0 2309710
XXX diffBits-1 1380
XXX diffBits-2 164464
XXX diffBits-3 693203
XXX diffBits-4 755529
XXX diffBits-5 861701
XXX diffBits-6 742010
XXX diffBits-7 907299
XXX diffBits-8 613338
XXX diffBits-9 694002
XXX diffBits-10 312591
XXX diffBits-11 315362
XXX diffBits-12 180723
XXX diffBits-13 173524
XXX diffBits-14 80629
XXX diffBits-15 105552
XXX diffBits-16 163902
XXX diffBits-17 109488
XXX diffBits-18 76189
XXX diffBits-19 159446
XXX diffBits-20 270732
XXX diffBits-21 243686
XXX diffBits-22 445735
XXX diffBits-23 0
XXX diffBits-24 0
XXX diffBits-25 220565
XXX diffBits-26 0
XXX diffBits-27 0
XXX diffBits-28 0
XXX diffBits-29 0
XXX diffBits-30 0
XXX diffBits-31 0
XXX diffBits-32 0
XXX diffBits-33 0
XXX diffBits-34 0
XXX diffBits-35 0
XXX diffBits-36 0
XXX diffBits-37 0
XXX diffBits-38 0
XXX diffBits-39 0
XXX diffBits-40 0
XXX diffBits-41 0
XXX diffBits-42 0
XXX diffBits-43 0
XXX diffBits-44 0
XXX diffBits-45 281602
XXX diffBits-46 0
XXX diffBits-47 0
XXX diffBits-48 0
XXX diffBits-49 0
XXX diffBits-50 0
XXX diffBits-51 0
XXX diffBits-52 0
XXX diffBits-53 0
XXX diffBits-54 0
XXX diffBits-55 0
XXX diffBits-56 0
XXX diffBits-57 0
XXX diffBits-58 0
XXX diffBits-59 0
XXX diffBits-60 0
XXX diffBits-61 0
XXX diffBits-62 1
XXX diffBits-63 0
XXX diffBits-64 0
XXX diffBits-65 0
CPU 0 L1D next line prefetcher final stats

DRAM Statistics
 CHANNEL 0
 RQ ROW_BUFFER_HIT:       9054  ROW_BUFFER_MISS:      18968
 DBUS_CONGESTED:      17330
 WQ ROW_BUFFER_HIT:       1162  ROW_BUFFER_MISS:      11939  FULL:          0

 AVG_CONGESTED_CYCLE: 5

CPU 0 Branch Prediction Accuracy: 81.227% MPKI: 35.0341 Average ROB Occupancy at Mispredict: 38.4666

XXX total_mispredicts 1751703
XXX total_target_mispredicts1 1264408
XXX total_target_mispredicts2 333874
XXX total_direction_mispredicts 153421
XXX mispredict_on_btb_hit 513770
XXX NOT_BRANCH: 0
XXX BRANCH_DIRECT_JUMP: 17134
XXX BRANCH_INDIRECT: 14680
XXX BRANCH_CONDITIONAL: 0
XXX BRANCH_DIRECT_CALL: 12083
XXX BRANCH_INDIRECT_CALL: 14029
XXX BRANCH_RETURN: 455844
XXX BRANCH_OTHER: 0
Branch types
NOT_BRANCH: 40668692 81.3374%
BRANCH_DIRECT_JUMP: 531698 1.0634%
BRANCH_INDIRECT: 199023 0.398046%
BRANCH_CONDITIONAL: 6211456 12.4229%
BRANCH_DIRECT_CALL: 1010905 2.02181%
BRANCH_INDIRECT_CALL: 183501 0.367002%
BRANCH_RETURN: 1194407 2.38881%
BRANCH_OTHER: 0 0%

XXX BTB_reads: 21003483
XXX BTB_writes: 1069896
XXX PageBTB_reads: 0
XXX PageBTB_writes: 0
XXX PageBTB_readsBeforeWrite: 0
XXX RegionBTB_reads: 0
XXX RegionBTB_writes: 0
XXX RegionBTB_readsBeforeWrite: 0
XXX BTB_4D_Hits 777586
XXX BTB_6D_Hits 692958
XXX BTB_8D_Hits 916524
XXX BTB_12D_Hits 318626
XXX BTB_18D_Hits 289264
XXX BTB_25D_Hits 225127
XXX BTB_46D_Hits 95271
XXX BTB_Ret_Hits 1129316
XXX BTB_4D_Misses 48501
XXX BTB_6D_Misses 40093
XXX BTB_8D_Misses 114280
XXX BTB_12D_Misses 128283
XXX BTB_18D_Misses 99185
XXX BTB_25D_Misses 212813
XXX BTB_46D_Misses 361650
XXX BTB_Ret_Misses 65091
XXX Num_unique_branches 10620
total instructions: 0
wc,tif,trb
5760,18851,111199
2974,15490,29578
2456,17482,30323
2547,17880,33401
1339,6235,27027
1510,11351,15131
4777,26609,63796
5126,19961,96607
5198,32885,55749
4741,33868,56263
2326,18976,22312
10398,47085,121043
24,125,327
2759,15629,42994
945,3877,18995
2252,12544,30972
1464,14751,16777
892,3564,18616
4448,17722,88040
955,9549,13256
3584,26984,30542
29,159,364
6079,37609,57704
4162,18922,70283
4591,22794,86475
8733,60667,64034
3554,25785,26718
2741,10995,57276
3161,12151,61379
248,1579,4581
7199,30475,120772
896,8440,13872
3389,26270,31863
1589,10345,21018
3724,19892,61424
1795,15554,20733
4097,14064,82939
6251,30457,102248
4353,18758,73299
1982,4510,44920
12,65,93
1854,19719,14297
990,4004,20588
1332,6644,26575
2571,15660,35126
5398,33925,24192
2140,9281,25495
5295,18064,92159
5126,23078,71958
4270,20148,48468
18,105,224
7626,50741,84123
7805,34962,97073
6,19,31
2740,18490,26283
6162,25059,100347
3373,24510,51165
16,58,158
4013,18911,52467
6,12,32
721,1091,16814
9529,37090,117095
7632,46621,91099
6,5,66
1796,8768,29715
8050,46238,76971
6263,30538,82962
1595,12142,24842
5055,28252,49034
4439,23896,50125
2340,12655,40377
4006,36267,54439
2574,21589,33247
2908,20949,26037
1638,7129,33557
1820,14166,22945
6722,21923,94130
3368,20799,36040
4109,21064,69402
7850,41517,96151
1568,13847,17394
1709,13381,24037
5640,18986,112024
1154,15088,10500
5131,30354,82817
12,47,133
1774,6638,32305
10565,52153,116567
5964,36191,54237
2541,16354,21139
7225,49848,55774
1774,3984,34979
3239,12483,62764
1785,11548,27661
4309,20745,74914
4097,25799,43519
3765,13117,66062
4508,32295,36636
5967,36450,95620
3468,11967,42525
1876,3976,37324
6225,30035,80568
1884,2836,44144
13992,77316,110440
889,3109,19062
942,4168,19152
9587,74879,100584
4050,12044,52648
3528,17333,63349
7230,52239,69343
3482,17156,69610
8635,52873,111333
1388,6913,27649
7144,41234,58635
610,6299,8593
1019,4901,19918
1775,6649,32347
6828,57973,62378
2505,7802,39217
9599,57214,52527
4751,28828,53385
5323,27562,69688
1647,7386,33399
6736,47709,63334
2666,14192,38966
1802,15718,23494
2593,9177,32481
2211,14822,31629
5916,30029,108914
1388,10291,19971
3361,28339,19808
8563,67628,42060
8159,58050,65159
1656,3670,37509
6,6,48
1542,13208,23636
892,6209,15991
1340,6277,13859
6112,38805,51939
2336,12120,35549
3088,20861,27079
2906,29526,19253
24,110,318
4195,11884,78735
3152,19690,30516
4188,28117,63502
900,3668,18618
1690,10287,12817
7340,45590,46686
6309,36864,70311
11513,57600,136869
11457,65056,109553
20,126,208
2452,19561,32493
837,6184,14331
1771,7077,31853
5434,30453,71089
30,155,465
4534,19871,71193
3110,25219,34607
398,2649,5347
896,3999,18293
2587,14626,32519
6711,35643,78886
2432,8746,33713
30,141,374
1405,8882,26021
1333,7974,21273
3750,33057,33011
1343,4080,23953
2221,14169,16892
2766,13656,50111
7267,39215,55482
11,46,108
18,63,267
3432,29380,24188
2526,7879,55176
909,6707,15750
887,4,22125
5889,27543,84496
540,2738,10462
2593,18167,41623
6,12,24
892,3116,19064
7862,43400,84890
1723,17298,17310
1292,9708,12542
2022,18003,22844
3886,20265,69501
5991,32487,100889
16,32,307
7887,58784,79804
8370,47000,84059
8,14,66
1309,6487,20828
2974,16912,25421
5047,34891,34550
4325,28054,42586
5834,53191,34767
904,6743,15639
919,3368,19199
5401,30605,65965
32,277,187
3182,23420,31824
2264,11888,35722
1796,17257,17416
893,1788,20417
2440,14725,23113
6,17,29
10292,78046,61108
455,2261,8994
10,32,118
502,3753,8559
4148,21708,41052
1394,4185,30545
1485,11664,21014
9986,82638,51518
452,1138,8756
888,8330,13422
474,1417,10373
1780,15071,16889
8,25,55
897,3595,18684
5088,27300,76515
1338,4475,28821
3033,13023,18288
947,5599,17610
5469,20617,83562
1290,3316,28752
5716,30178,69296
11,33,80
234,937,4799
5186,29171,56113
5306,34657,63565
906,7096,15378
4462,29981,46204
5042,16757,86347
4594,33746,56512
2454,15374,31856
7686,20694,146156
1659,15216,22196
395,1170,6282
3984,22330,32520
950,8997,9310
8755,57318,60381
4188,33190,45859
8103,38894,80863
899,5786,16554
3603,35443,44374
5228,23303,96351
287,2250,4797
2318,13927,34026
2224,13237,24401
8879,41062,109083
45,208,760
2308,9264,48094
10551,55671,102668
4694,28965,54207
453,2191,4664
2336,3329,54845
2770,11066,58038
895,3578,18696
2019,12410,23295
16,60,220
4429,23971,45379
4032,20116,62136
6,18,58
7059,25152,109250
4450,34749,42830
2856,22708,16044
7,36,40
1952,9505,39163
784,9192,10293
668,2966,9652
6684,35535,83001
2045,13123,22294
4110,15056,79534
3866,26457,48959
1833,11917,19003
3965,18984,73039
4023,17241,71240
894,8865,4481
1430,5064,24021
2765,5535,63470
1778,7547,31485
7,23,32
8683,43164,91553
4105,33453,47521
9401,44659,112054
4538,30422,27552
4345,20961,72628
480,2152,173
560,2528,10972
3717,19909,54010
5183,26487,40759
979,10725,2344
2299,15047,31375
941,5191,17631
3321,19742,29567
1298,3887,26529
481,2619,9238
2842,14841,55034
3200,17103,31303
5012,33859,31865
3229,7133,73024
5174,44528,45926
895,1825,20374
1659,13950,22285
16,111,109
811,2511,17464
4005,18863,39902
550,7809,4543
3378,17936,53126
2007,4568,17769
4059,30678,33694
1147,7685,20664
5094,21396,91670
4560,25095,50903
5550,29444,97894
2486,12469,37693
9557,66281,85808
2090,16302,20036
14509,94597,77911
12999,72319,109694
4841,13403,99267
890,3558,18602
8732,67059,62339
1537,13293,24772
1879,7536,39285
71,696,641
9353,56453,95957
7217,38674,68947
3828,21731,53433
5164,26718,56517
7330,50926,41978
4701,13762,99309
2676,20340,45894
1134,4983,23236
2880,24638,20964
7348,47515,85625
3715,10732,65122
6321,31264,100534
7043,47522,56169
3433,18631,41532
4769,26325,69217
2779,9738,59393
11322,61703,72774
6482,30277,103039
4928,24078,73832
3752,17394,75974
2304,13360,32617
7784,32312,110606
9,23,64
4448,32837,42247
9194,48542,81763
3052,11641,58905
9205,72602,61328
4861,33734,49942
3200,21346,40758
2198,16977,11585
3377,23291,35345
892,5328,16852
27,108,221
1333,3546,29673
6590,42208,97559
10082,70016,49792
3551,13449,50026
20,213,227
6139,23020,69831
3993,19617,60312
6232,27852,98712
4478,32520,48634
2155,16379,26074
1806,12547,26731
4011,29994,36842
2219,16925,25566
1474,12220,21630
3941,25359,41534
6457,34079,82823
3764,17341,59367
8521,50719,92210
1437,6206,20600
11273,46811,143658
1229,2950,25581
3725,25169,29199
609,5198,6927
13,37,182
7299,34447,98610
3214,12147,61853
3648,10882,62269
5262,18675,95331
8413,46390,116954
2164,12578,36308
16036,83270,133825
2821,10337,45030
8635,21063,138158
4273,35072,24828
11151,73268,57265
1767,9698,34351
3068,22394,37839
4647,23097,68393
12474,46074,163462
7658,59035,76601
1802,12531,6883
2113,7022,41447
5255,26845,96262
1640,14143,17893
2599,12208,46551
12738,74531,114775
1534,8151,23755
1613,12550,20415
3650,23320,37450
10057,54143,126466
8696,47945,89638
11217,66945,104786
3236,15225,34157
2390,17622,12199
709,5950,11643
1742,11474,15026
5488,21660,87827
5,7,33
4151,27848,24099
4506,29966,29262
12643,78317,101156
1969,10986,35757
3712,38175,16978
2531,17484,44363
1899,12778,34407
8043,53750,64943
8,18,83
19,89,149
7025,44028,62747
2111,14053,28362
1365,8287,14474
5237,32594,65017
890,4437,17713
725,4323,11552
4226,19673,79448
8829,46785,85283
2731,20248,45085
6347,44231,70600
5726,36230,41834
4601,38790,47407
4257,21560,54486
11588,60011,117563
10800,48438,161904
2739,15252,47041
9673,39682,114642
1316,12067,16574
4454,29557,63328
9277,60507,98704
5182,32863,70422
3702,10210,82072
4561,30111,55651
10,42,68
4463,37401,44076
3161,17479,51520
2572,18494,19448
5183,35212,50562
16955,80117,181941
7747,37109,80604
436,6815,3941
3501,22940,48683
6471,19428,113329
15528,87571,128931
24,158,197
2001,4608,45313
6468,21010,80947
13,65,161
2743,15671,18365
26,116,312
1882,7517,39444
9176,44524,96377
1780,4331,39939
2223,16747,16046
5029,31648,65653
2767,8310,60759
16403,95321,139845
8921,65187,49332
1000,2720,22058
6020,35214,97568
25,135,264
1829,17291,28275
16171,95888,119234
8032,38381,110537
903,7138,15246
38,331,392
3602,12479,77476
5,11,35
7530,53146,65765
7548,36901,104499
1430,17575,11750
2817,17838,44107
7870,55322,98057
2968,11282,62887
3139,25275,44679
5789,37631,82955
12,30,164
1346,5022,28432
1926,14366,22463
1344,5382,28014
3825,25138,36180
5504,35857,63457
2799,20773,43613
16,136,78
1564,8671,27626
4380,32351,67347
22,114,280
4334,31578,61303
7968,39215,130665
8072,38129,101235
914,8545,14077
