Initialize SIGNATURE TABLE
ST_SET: 1
ST_WAY: 256
ST_TAG_BIT: 16
ST_TAG_MASK: ffff

Initialize PATTERN TABLE
PT_SET: 512
PT_WAY: 4
SIG_DELTA_BIT: 7
C_SIG_BIT: 4
C_DELTA_BIT: 4

Initialize PREFETCH FILTER
FILTER_SET: 1024

*** ChampSim Multicore Out-of-Order Simulator ***

Warmup Instructions: 50000000
Simulation Instructions: 50000000
Number of CPUs: 1
LLC sets: 2048
LLC ways: 16
Off-chip DRAM Size: 4096 MB Channels: 1 Width: 64-bit Data Rate: 3200 MT/s

CPU 0 runs /ChampSim-master-BTBX/dpc3_traces/server_027.champsimtrace.xz
Basic BTB sets: 4096 ways: 4 indirect buffer size: 4096 RAS size: 64
CPU 0 L1D next line prefetcher
Heartbeat CPU 0 instructions: 10000001 cycles: 3528514 heartbeat IPC: 2.83405 cumulative IPC: 2.83405 (Simulation time: 0 hr 0 min 18 sec) 
Heartbeat CPU 0 instructions: 20000001 cycles: 7061899 heartbeat IPC: 2.83015 cumulative IPC: 2.8321 (Simulation time: 0 hr 0 min 37 sec) 
Heartbeat CPU 0 instructions: 30000002 cycles: 10590087 heartbeat IPC: 2.83432 cumulative IPC: 2.83284 (Simulation time: 0 hr 0 min 55 sec) 
Heartbeat CPU 0 instructions: 40000000 cycles: 14123802 heartbeat IPC: 2.82988 cumulative IPC: 2.8321 (Simulation time: 0 hr 1 min 13 sec) 
Heartbeat CPU 0 instructions: 50000001 cycles: 17651874 heartbeat IPC: 2.83441 cumulative IPC: 2.83256 (Simulation time: 0 hr 1 min 32 sec) 

Warmup complete CPU 0 instructions: 50000001 cycles: 17651874 (Simulation time: 0 hr 1 min 32 sec) 

Heartbeat CPU 0 instructions: 60000002 cycles: 32159699 heartbeat IPC: 0.689283 cumulative IPC: 0.689283 (Simulation time: 0 hr 1 min 49 sec) 
Heartbeat CPU 0 instructions: 70000001 cycles: 46621960 heartbeat IPC: 0.691455 cumulative IPC: 0.690367 (Simulation time: 0 hr 2 min 7 sec) 
Heartbeat CPU 0 instructions: 80000002 cycles: 61051282 heartbeat IPC: 0.693033 cumulative IPC: 0.691254 (Simulation time: 0 hr 2 min 25 sec) 
Heartbeat CPU 0 instructions: 90000001 cycles: 75594974 heartbeat IPC: 0.687583 cumulative IPC: 0.690332 (Simulation time: 0 hr 2 min 43 sec) 
Heartbeat CPU 0 instructions: 100000002 cycles: 89999774 heartbeat IPC: 0.694213 cumulative IPC: 0.691105 (Simulation time: 0 hr 3 min 1 sec) 
Finished CPU 0 instructions: 50000001 cycles: 72347900 cumulative IPC: 0.691105 (Simulation time: 0 hr 3 min 1 sec) 

ChampSim completed all CPUs

Region of Interest Statistics

CPU 0
XXX cumulative-IPC 0.691105
XXX instructions 50000001
XXX cycles 72347900
L1D TOTAL     ACCESS:   22699012  HIT:   21093611  MISS:    1605401
L1D LOAD      ACCESS:    8279188  HIT:    7602504  MISS:     676684
L1D RFO       ACCESS:    6408574  HIT:    6124174  MISS:     284400
L1D PREFETCH  ACCESS:    8011250  HIT:    7366933  MISS:     644317
L1D WRITEBACK ACCESS:          0  HIT:          0  MISS:          0
L1D PREFETCH  REQUESTED:    8330403  ISSUED:    8222839
XXX L1D-USEFUL 166108
XXX L1D-USELESS 478224
L1D AVERAGE MISS LATENCY: 25.0845 cycles
L1I TOTAL     ACCESS:   13948185  HIT:   10555884  MISS:    3392301
L1I LOAD      ACCESS:    9093659  HIT:    7306314  MISS:    1787345
L1I RFO       ACCESS:          0  HIT:          0  MISS:          0
L1I PREFETCH  ACCESS:    4854526  HIT:    3249570  MISS:    1604956
L1I WRITEBACK ACCESS:          0  HIT:          0  MISS:          0
L1I PREFETCH  REQUESTED:    7624338  ISSUED:    7624338
XXX L1I-USEFUL 1026939
XXX L1I-USELESS 578019
L1I AVERAGE MISS LATENCY: 13.7104 cycles
L2C TOTAL     ACCESS:    6969779  HIT:    5719760  MISS:    1250019
L2C LOAD      ACCESS:    1412088  HIT:    1118321  MISS:     293767
L2C RFO       ACCESS:     282284  HIT:     177897  MISS:     104387
L2C PREFETCH  ACCESS:    4716033  HIT:    3869879  MISS:     846154
L2C WRITEBACK ACCESS:     559374  HIT:     553663  MISS:       5711
L2C PREFETCH  REQUESTED:    4530905  ISSUED:    4530626
XXX L2C-USEFUL 69173
XXX L2C-USELESS 775404
L2C AVERAGE MISS LATENCY: 35.701 cycles
LLC TOTAL     ACCESS:    2433619  HIT:    2400521  MISS:      33098
LLC LOAD      ACCESS:     293631  HIT:     290335  MISS:       3296
LLC RFO       ACCESS:     104386  HIT:      90452  MISS:      13934
LLC PREFETCH  ACCESS:    1851010  HIT:    1835277  MISS:      15733
LLC WRITEBACK ACCESS:     184592  HIT:     184457  MISS:        135
LLC PREFETCH  REQUESTED:          0  ISSUED:          0
XXX LLC-USEFUL 1226
XXX LLC-USELESS 13577
LLC AVERAGE MISS LATENCY: 169.393 cycles
Major fault: 0 Minor fault: 2485
XXX disp-0 2220185
XXX disp-1 0
XXX disp-2 1966
XXX disp-3 467537
XXX disp-4 1089389
XXX disp-5 1113841
XXX disp-6 1206640
XXX disp-7 785288
XXX disp-8 600473
XXX disp-9 473329
XXX disp-10 301439
XXX disp-11 214127
XXX disp-12 115929
XXX disp-13 138160
XXX disp-14 125190
XXX disp-15 141102
XXX disp-16 69193
XXX disp-17 65608
XXX disp-18 148319
XXX disp-19 121248
XXX disp-20 135112
XXX disp-21 276814
XXX disp-22 173632
XXX disp-23 359751
XXX disp-24 105394
XXX disp-25 0
XXX disp-26 0
XXX disp-27 0
XXX disp-28 0
XXX disp-29 0
XXX disp-30 0
XXX disp-31 0
XXX disp-32 0
XXX disp-33 0
XXX disp-34 0
XXX disp-35 0
XXX disp-36 0
XXX disp-37 0
XXX disp-38 0
XXX disp-39 0
XXX disp-40 0
XXX disp-41 0
XXX disp-42 0
XXX disp-43 0
XXX disp-44 0
XXX disp-45 0
XXX disp-46 279165
XXX disp-47 0
XXX disp-48 0
XXX disp-49 0
XXX disp-50 0
XXX disp-51 0
XXX disp-52 0
XXX disp-53 0
XXX disp-54 0
XXX disp-55 0
XXX disp-56 0
XXX disp-57 0
XXX disp-58 0
XXX disp-59 0
XXX disp-60 0
XXX disp-61 0
XXX disp-62 0
XXX disp-63 1
XXX disp-64 0
XXX disp-65 0
XXX diffBits-0 2220185
XXX diffBits-1 1456
XXX diffBits-2 177173
XXX diffBits-3 670701
XXX diffBits-4 728437
XXX diffBits-5 860183
XXX diffBits-6 756454
XXX diffBits-7 979759
XXX diffBits-8 601532
XXX diffBits-9 665777
XXX diffBits-10 310803
XXX diffBits-11 306810
XXX diffBits-12 191925
XXX diffBits-13 173307
XXX diffBits-14 68262
XXX diffBits-15 103387
XXX diffBits-16 142430
XXX diffBits-17 108270
XXX diffBits-18 82108
XXX diffBits-19 125098
XXX diffBits-20 291816
XXX diffBits-21 258572
XXX diffBits-22 412809
XXX diffBits-23 0
XXX diffBits-24 0
XXX diffBits-25 212412
XXX diffBits-26 0
XXX diffBits-27 0
XXX diffBits-28 0
XXX diffBits-29 0
XXX diffBits-30 0
XXX diffBits-31 0
XXX diffBits-32 0
XXX diffBits-33 0
XXX diffBits-34 0
XXX diffBits-35 0
XXX diffBits-36 0
XXX diffBits-37 0
XXX diffBits-38 0
XXX diffBits-39 0
XXX diffBits-40 0
XXX diffBits-41 0
XXX diffBits-42 0
XXX diffBits-43 0
XXX diffBits-44 0
XXX diffBits-45 279165
XXX diffBits-46 0
XXX diffBits-47 0
XXX diffBits-48 0
XXX diffBits-49 0
XXX diffBits-50 0
XXX diffBits-51 0
XXX diffBits-52 0
XXX diffBits-53 0
XXX diffBits-54 0
XXX diffBits-55 0
XXX diffBits-56 0
XXX diffBits-57 0
XXX diffBits-58 0
XXX diffBits-59 0
XXX diffBits-60 0
XXX diffBits-61 0
XXX diffBits-62 1
XXX diffBits-63 0
XXX diffBits-64 0
XXX diffBits-65 0
CPU 0 L1D next line prefetcher final stats

DRAM Statistics
 CHANNEL 0
 RQ ROW_BUFFER_HIT:      10816  ROW_BUFFER_MISS:      22142
 DBUS_CONGESTED:      21482
 WQ ROW_BUFFER_HIT:       1534  ROW_BUFFER_MISS:      14769  FULL:          0

 AVG_CONGESTED_CYCLE: 6

CPU 0 Branch Prediction Accuracy: 78.3356% MPKI: 39.613 Average ROB Occupancy at Mispredict: 35.7948

XXX total_mispredicts 1980652
XXX total_target_mispredicts1 1440257
XXX total_target_mispredicts2 390076
XXX total_direction_mispredicts 150319
XXX mispredict_on_btb_hit 578418
XXX NOT_BRANCH: 0
XXX BRANCH_DIRECT_JUMP: 20394
XXX BRANCH_INDIRECT: 17134
XXX BRANCH_CONDITIONAL: 0
XXX BRANCH_DIRECT_CALL: 13288
XXX BRANCH_INDIRECT_CALL: 16306
XXX BRANCH_RETURN: 511296
XXX BRANCH_OTHER: 0
Branch types
NOT_BRANCH: 40857228 81.7145%
BRANCH_DIRECT_JUMP: 526631 1.05326%
BRANCH_INDIRECT: 205902 0.411804%
BRANCH_CONDITIONAL: 6184014 12.368%
BRANCH_DIRECT_CALL: 938462 1.87692%
BRANCH_INDIRECT_CALL: 174486 0.348972%
BRANCH_RETURN: 1112952 2.2259%
BRANCH_OTHER: 0 0%

XXX BTB_reads: 23751024
XXX BTB_writes: 1234188
XXX PageBTB_reads: 0
XXX PageBTB_writes: 0
XXX PageBTB_readsBeforeWrite: 0
XXX RegionBTB_reads: 0
XXX RegionBTB_writes: 0
XXX RegionBTB_readsBeforeWrite: 0
XXX BTB_4D_Hits 730818
XXX BTB_6D_Hits 694438
XXX BTB_8D_Hits 906553
XXX BTB_12D_Hits 295423
XXX BTB_18D_Hits 214056
XXX BTB_25D_Hits 167782
XXX BTB_46D_Hits 85013
XXX BTB_Ret_Hits 1038391
XXX BTB_4D_Misses 57546
XXX BTB_6D_Misses 46047
XXX BTB_8D_Misses 134848
XXX BTB_12D_Misses 148519
XXX BTB_18D_Misses 114132
XXX BTB_25D_Misses 243101
XXX BTB_46D_Misses 415434
XXX BTB_Ret_Misses 74561
XXX Num_unique_branches 10740
total instructions: 0
wc,tif,trb
6402,20943,122955
3258,16554,32637
2671,19838,33631
2854,19770,37476
1553,7194,31455
1600,11751,14289
5277,29176,70993
5349,21040,101065
6559,48675,72314
2973,26270,38721
2674,21927,25475
11388,60266,132750
21,103,272
2910,17052,45018
1066,4348,21605
2579,14355,35398
1776,17960,20660
1028,4109,21471
4764,19113,93795
873,8174,12764
4322,32162,36108
32,181,405
6742,39580,61762
4507,20777,75122
4864,23480,91844
9149,63427,67042
4023,30351,30248
2857,11438,59819
3501,13198,68126
271,1726,5009
7574,31780,126386
1038,9757,16093
3951,33036,36223
1755,12034,21783
3595,20686,60141
2069,18036,23985
4442,15374,89366
6851,35039,115928
4941,22291,80786
2269,5157,51448
8,30,50
2026,21776,15769
1036,3706,22062
1537,7668,30655
2940,17988,40051
6167,37470,27270
2745,13767,35546
5399,18641,94952
5589,24762,76638
4857,23179,55134
34,217,476
8348,54987,90613
8654,35419,105422
6,19,31
3299,21251,31109
6501,25870,106063
3614,26581,53767
24,104,300
4448,21046,57969
6,12,32
815,1218,19063
10064,39398,122828
8270,49474,97944
6,5,66
2094,10222,35057
8575,45649,82086
7288,34225,86518
1787,13688,27762
5664,32980,52354
5124,27754,57778
2700,14703,46535
4194,38093,57187
2860,24222,34396
3378,24473,29851
1945,8439,39984
1655,15981,23023
7518,24437,104403
3848,23181,40987
4258,21686,73486
8612,42874,106564
1827,18579,21673
1954,15323,27455
5848,17878,118870
1532,18738,16200
5246,30900,84810
8,16,64
2046,7663,37278
10898,55555,119664
5652,34863,53241
3130,19611,22837
7600,51381,59783
2046,4597,40356
3445,13278,66343
2047,13281,31698
4544,22110,82456
4665,29840,49445
4241,15776,73400
5154,36733,42680
6432,35659,106472
3824,13656,47796
2164,4571,43225
6676,31006,85926
1888,2845,44235
14899,80894,120074
1027,3593,22028
1137,4961,23206
9716,78025,105975
4535,14025,60226
3777,18111,67818
9787,64968,96475
3624,17683,72607
9210,55222,118083
1466,7299,29201
8155,45954,65833
604,6772,8070
1128,5164,22496
2037,7613,37177
7041,60103,62992
2080,7714,37566
9717,59048,52642
5460,33098,61352
5273,25574,70790
1631,7329,32956
7412,51312,70330
3056,16342,44730
2080,18107,27145
2922,10502,36879
2338,15655,33949
6307,31623,115565
1747,11871,26290
3831,32434,22449
8296,67343,39768
8384,59233,64874
1660,3454,37827
6,6,48
1661,15154,26123
1031,7166,18485
1527,7119,15782
6432,41247,55788
1544,2990,25386
2611,10320,40563
1583,10565,20592
1531,7617,27464
4549,13137,84270
3703,21421,38504
4725,31516,68634
1031,4166,21455
1877,11543,14371
8329,50230,52571
6991,41034,75675
12519,62547,146704
12027,64938,118603
23,142,243
2754,22931,38093
989,7361,17046
2042,8164,36741
6322,37656,79340
30,149,457
5059,22050,78911
3590,29098,39968
503,3424,6909
1032,4606,21066
2708,16819,35789
8860,38945,102410
2776,12748,38634
22,154,281
1482,9165,27701
1537,9198,24537
4388,36940,38786
1551,4693,27655
2565,24252,19521
2973,12461,52297
8985,54006,70153
5,14,73
17,46,265
3905,32621,27588
2912,9321,63384
1047,7730,18120
1014,4,25300
6132,27639,87455
664,3382,13016
2866,20098,46437
6,12,24
1028,3605,21868
8617,48847,91686
1546,18253,15440
1456,10755,15078
2111,24093,21236
3901,20853,69822
6195,33251,104453
15,24,271
9675,66174,84136
8189,36267,80745
8,25,77
581,2852,9145
3013,22059,24604
5825,38617,39617
4304,29534,42186
5993,54324,36744
1120,8922,18809
1040,3644,22146
5767,32229,70807
24,220,160
3659,26165,36236
2633,13897,41280
1959,19095,18911
1033,2062,23587
3314,19958,26239
6,15,33
10705,80565,63475
522,2597,10333
9,28,97
544,4076,9238
4703,24494,47216
1468,4416,32134
1531,12032,22340
10703,84074,54878
392,1009,7575
1032,9732,15908
513,1531,11216
2046,17371,19457
8,25,55
1069,4312,21875
5510,30060,81537
1542,5149,33243
3178,13007,18081
1140,6717,20939
5731,22324,88829
1331,3393,29664
6477,33896,78150
11,33,108
285,1152,5853
5354,33704,63962
6094,39299,70134
1041,8205,17640
4438,32353,51121
4832,14029,88182
4371,30823,46983
1704,10796,27910
8449,23066,159079
1554,16415,19127
487,1446,7754
4497,25722,37361
1018,9695,9960
9521,62340,63254
4194,30939,45419
8419,39721,83100
1034,6666,19055
3767,36779,46738
3730,18241,68577
225,884,4607
2697,14343,39416
2565,17582,28159
9273,43073,114586
884,4823,17110
2484,9966,51892
11275,59894,108358
5031,31004,57997
452,2209,4643
2511,3727,58684
2910,11639,60977
1030,4120,21529
2278,14703,26727
14,50,180
4329,22405,47549
4321,21403,65764
6,17,59
7452,26440,114504
4772,36567,46250
3277,24618,18427
8,52,49
1911,9741,37850
953,8490,11430
206,833,2911
7336,39190,89241
2749,20045,30480
4430,16463,85113
3344,20028,43830
2255,14624,19307
4037,18702,74807
4304,18834,76016
742,5426,4202
1587,8381,27424
2908,5820,66780
2051,8710,36345
8,41,39
9069,46220,94563
4448,35786,49766
9524,46910,114755
5179,35031,31645
4677,22103,78616
552,2485,187
67,245,378
4036,19600,60482
5719,28533,41397
925,12139,1978
2446,16111,33852
1077,5882,20273
3489,22002,28144
1473,4374,30195
516,2819,9961
2991,15553,57937
3648,20488,36194
5746,38849,36807
3111,6479,70496
5359,46433,47562
1032,2102,23505
1812,15701,23982
25,198,229
529,1585,11324
4586,19807,45691
644,6128,5089
3697,18636,51083
3295,8706,36205
4311,32141,34259
1302,8788,23376
5323,22059,96304
4726,24808,52839
5737,30769,101096
2666,12990,39878
10379,71597,92160
2313,18205,22404
15381,99878,81957
13538,76136,114922
5071,13979,104065
1025,4097,21438
9508,69550,68363
1766,15204,28455
1483,5934,31021
69,726,613
10271,61582,98224
8147,45976,75130
4294,26368,61490
5667,32036,61677
8253,61493,43267
4769,14011,100188
3588,26661,56428
1289,5667,26389
3311,29642,24089
8117,51929,94400
4226,12117,74671
6662,31397,106505
7085,48087,57793
4009,21523,48800
5039,27549,74349
2930,10262,62415
12439,67442,76221
7045,31027,112112
5446,25351,80959
4006,18345,81314
2415,13333,34668
8407,34422,118617
8,22,58
4675,34176,44987
9322,50052,84636
3111,11864,59947
9843,77053,62054
5183,36551,54564
2900,14221,40715
2547,21350,23983
3804,26687,40132
1031,6163,19436
26,160,242
1531,4090,34079
7097,46313,103266
10537,73190,50706
4075,15582,57318
17,174,191
6777,28458,74031
4224,20584,63270
6702,29887,105437
4907,35425,51895
2508,19389,30780
2056,14292,30607
4540,35099,41519
3255,19968,33062
850,4425,16635
4528,27618,48934
6848,36276,88435
4056,19099,63115
8893,52675,96884
1646,7718,23979
11934,49310,151566
1457,3779,30836
4016,27873,31696
52,396,464
11,31,138
7937,37047,106188
2946,12596,60522
3839,10587,62368
5656,20283,101929
8830,48756,122975
2676,7473,44301
16782,86365,141319
2904,10721,45595
9398,22598,148800
5336,44088,32113
11260,73833,56713
1748,9596,33912
3471,25006,42333
4056,20621,61578
13001,48470,169473
8472,58867,84451
2063,8740,7835
2169,7020,42451
5532,28865,100052
1754,14587,20762
2584,10680,47984
13310,78472,120660
1655,8538,26443
1800,14074,23022
3966,25554,39646
10882,56851,135641
9044,50380,93295
11787,71261,110226
3732,17778,39422
2626,19599,13325
763,6408,12498
1897,14086,16459
5913,23414,93863
5,7,33
4819,31792,28198
4966,31572,33203
13379,81638,105314
2140,12345,38619
3441,36711,19434
4159,22185,61572
1907,13559,33810
8589,60209,68496
8,15,65
18,118,148
7145,43748,63785
2402,15658,32566
1576,9616,16688
5810,34633,71531
1026,5117,20433
777,4619,12348
4755,21926,87535
9486,49974,89168
2778,20383,46859
6618,46113,73469
6107,38787,43844
4907,41288,49857
4828,25256,62240
12145,62982,121686
11635,50368,173531
2825,15566,48853
10242,43257,119570
1395,14212,17063
4757,29540,72024
9678,55017,105763
5647,34939,76587
3856,10716,85348
5040,31203,59067
15,47,113
5140,41986,47136
2930,16872,48378
2600,17595,18358
5370,38369,51963
17799,84313,191017
8416,44671,83649
521,8077,4718
3463,24254,48931
6683,21877,117396
15145,86420,122706
14,73,95
1960,4395,44501
7319,22195,89837
14,61,169
3094,17943,21366
14,60,170
1919,7664,40222
10489,48987,101061
1962,4400,44530
2538,17551,18317
5288,32378,68830
2916,8755,64027
17669,102307,147489
9283,67561,50225
1131,3066,25033
6284,36780,100823
16,70,132
1858,17564,28711
16962,100295,128429
8369,40378,112584
1041,8223,17571
30,264,304
3736,12871,80448
5,9,30
7799,60776,64355
7959,39092,110353
1660,18368,14869
2824,17867,44229
8248,59221,102477
3154,11720,67099
3618,29091,51512
6150,40404,88097
12,30,164
1548,5740,32790
2148,16398,24773
1548,6184,32235
4676,28408,40330
6458,41435,67913
3194,23593,49967
15,106,89
1825,10081,32055
4637,35121,70402
17,62,209
4464,32063,63093
8840,42780,144452
8154,39513,103681
1051,9871,16208
