Initialize SIGNATURE TABLE
ST_SET: 1
ST_WAY: 256
ST_TAG_BIT: 16
ST_TAG_MASK: ffff

Initialize PATTERN TABLE
PT_SET: 512
PT_WAY: 4
SIG_DELTA_BIT: 7
C_SIG_BIT: 4
C_DELTA_BIT: 4

Initialize PREFETCH FILTER
FILTER_SET: 1024

*** ChampSim Multicore Out-of-Order Simulator ***

Warmup Instructions: 50000000
Simulation Instructions: 50000000
Number of CPUs: 1
LLC sets: 2048
LLC ways: 16
Off-chip DRAM Size: 4096 MB Channels: 1 Width: 64-bit Data Rate: 3200 MT/s

CPU 0 runs /ChampSim-master-BTBX/dpc3_traces/server_020.champsimtrace.xz
Basic BTB sets: 4096 ways: 4 indirect buffer size: 4096 RAS size: 64
CPU 0 L1D next line prefetcher
Heartbeat CPU 0 instructions: 10000003 cycles: 3623873 heartbeat IPC: 2.75948 cumulative IPC: 2.75948 (Simulation time: 0 hr 0 min 19 sec) 
Heartbeat CPU 0 instructions: 20000002 cycles: 7252311 heartbeat IPC: 2.75601 cumulative IPC: 2.75774 (Simulation time: 0 hr 0 min 38 sec) 
Heartbeat CPU 0 instructions: 30000001 cycles: 10873880 heartbeat IPC: 2.76123 cumulative IPC: 2.7589 (Simulation time: 0 hr 0 min 56 sec) 
Heartbeat CPU 0 instructions: 40000002 cycles: 14496714 heartbeat IPC: 2.76027 cumulative IPC: 2.75925 (Simulation time: 0 hr 1 min 15 sec) 
Heartbeat CPU 0 instructions: 50000001 cycles: 18132833 heartbeat IPC: 2.75018 cumulative IPC: 2.75743 (Simulation time: 0 hr 1 min 36 sec) 

Warmup complete CPU 0 instructions: 50000001 cycles: 18132833 (Simulation time: 0 hr 1 min 36 sec) 

Heartbeat CPU 0 instructions: 60000001 cycles: 38767273 heartbeat IPC: 0.484627 cumulative IPC: 0.484627 (Simulation time: 0 hr 1 min 59 sec) 
Heartbeat CPU 0 instructions: 70000002 cycles: 59447516 heartbeat IPC: 0.483553 cumulative IPC: 0.484089 (Simulation time: 0 hr 2 min 22 sec) 
Heartbeat CPU 0 instructions: 80000001 cycles: 80082604 heartbeat IPC: 0.484611 cumulative IPC: 0.484263 (Simulation time: 0 hr 2 min 45 sec) 
Heartbeat CPU 0 instructions: 90000001 cycles: 100703919 heartbeat IPC: 0.484935 cumulative IPC: 0.484431 (Simulation time: 0 hr 3 min 8 sec) 
Heartbeat CPU 0 instructions: 100000002 cycles: 121260069 heartbeat IPC: 0.486472 cumulative IPC: 0.484838 (Simulation time: 0 hr 3 min 31 sec) 
Finished CPU 0 instructions: 50000001 cycles: 103127236 cumulative IPC: 0.484838 (Simulation time: 0 hr 3 min 31 sec) 

ChampSim completed all CPUs

Region of Interest Statistics

CPU 0
XXX cumulative-IPC 0.484838
XXX instructions 50000001
XXX cycles 103127236
L1D TOTAL     ACCESS:   20032009  HIT:   17826836  MISS:    2205173
L1D LOAD      ACCESS:    7677441  HIT:    6978800  MISS:     698641
L1D RFO       ACCESS:    5864903  HIT:    4918171  MISS:     946732
L1D PREFETCH  ACCESS:    6489665  HIT:    5929865  MISS:     559800
L1D WRITEBACK ACCESS:          0  HIT:          0  MISS:          0
L1D PREFETCH  REQUESTED:    7724418  ISSUED:    7570765
XXX L1D-USEFUL 219420
XXX L1D-USELESS 340299
L1D AVERAGE MISS LATENCY: 165.071 cycles
L1I TOTAL     ACCESS:   14555754  HIT:   11493695  MISS:    3062059
L1I LOAD      ACCESS:   10232506  HIT:    8469476  MISS:    1763030
L1I RFO       ACCESS:          0  HIT:          0  MISS:          0
L1I PREFETCH  ACCESS:    4323248  HIT:    3024219  MISS:    1299029
L1I WRITEBACK ACCESS:          0  HIT:          0  MISS:          0
L1I PREFETCH  REQUESTED:    6955000  ISSUED:    6955000
XXX L1I-USEFUL 783745
XXX L1I-USELESS 515285
L1I AVERAGE MISS LATENCY: 15.8488 cycles
L2C TOTAL     ACCESS:    8080184  HIT:    6189851  MISS:    1890333
L2C LOAD      ACCESS:    2062098  HIT:    1730733  MISS:     331365
L2C RFO       ACCESS:     946233  HIT:      18998  MISS:     927235
L2C PREFETCH  ACCESS:    3907926  HIT:    3279093  MISS:     628833
L2C WRITEBACK ACCESS:    1163927  HIT:    1161027  MISS:       2900
L2C PREFETCH  REQUESTED:    4616068  ISSUED:    4614037
XXX L2C-USEFUL 37573
XXX L2C-USELESS 590514
L2C AVERAGE MISS LATENCY: 195.553 cycles
LLC TOTAL     ACCESS:    3998310  HIT:    2534779  MISS:    1463531
LLC LOAD      ACCESS:     331228  HIT:     217157  MISS:     114071
LLC RFO       ACCESS:     927162  HIT:     139624  MISS:     787538
LLC PREFETCH  ACCESS:    1640596  HIT:    1080850  MISS:     559746
LLC WRITEBACK ACCESS:    1099324  HIT:    1097148  MISS:       2176
LLC PREFETCH  REQUESTED:          0  ISSUED:          0
XXX LLC-USEFUL 36504
XXX LLC-USELESS 522753
LLC AVERAGE MISS LATENCY: 257.815 cycles
Major fault: 0 Minor fault: 22093
XXX disp-0 1822415
XXX disp-1 0
XXX disp-2 0
XXX disp-3 803308
XXX disp-4 961478
XXX disp-5 1121870
XXX disp-6 1428257
XXX disp-7 644821
XXX disp-8 599299
XXX disp-9 382649
XXX disp-10 244384
XXX disp-11 216981
XXX disp-12 170507
XXX disp-13 126150
XXX disp-14 127009
XXX disp-15 139121
XXX disp-16 200511
XXX disp-17 70615
XXX disp-18 208686
XXX disp-19 164704
XXX disp-20 99471
XXX disp-21 31675
XXX disp-22 9527
XXX disp-23 196249
XXX disp-24 0
XXX disp-25 0
XXX disp-26 0
XXX disp-27 0
XXX disp-28 0
XXX disp-29 0
XXX disp-30 0
XXX disp-31 0
XXX disp-32 0
XXX disp-33 0
XXX disp-34 0
XXX disp-35 0
XXX disp-36 0
XXX disp-37 0
XXX disp-38 0
XXX disp-39 0
XXX disp-40 0
XXX disp-41 0
XXX disp-42 0
XXX disp-43 0
XXX disp-44 0
XXX disp-45 0
XXX disp-46 99103
XXX disp-47 0
XXX disp-48 0
XXX disp-49 0
XXX disp-50 0
XXX disp-51 0
XXX disp-52 0
XXX disp-53 0
XXX disp-54 0
XXX disp-55 0
XXX disp-56 0
XXX disp-57 0
XXX disp-58 0
XXX disp-59 0
XXX disp-60 0
XXX disp-61 0
XXX disp-62 0
XXX disp-63 0
XXX disp-64 0
XXX disp-65 0
XXX diffBits-0 1822415
XXX diffBits-1 0
XXX diffBits-2 679404
XXX diffBits-3 555568
XXX diffBits-4 450985
XXX diffBits-5 1062910
XXX diffBits-6 755782
XXX diffBits-7 575907
XXX diffBits-8 556936
XXX diffBits-9 1036750
XXX diffBits-10 298442
XXX diffBits-11 347508
XXX diffBits-12 105891
XXX diffBits-13 185233
XXX diffBits-14 105145
XXX diffBits-15 140196
XXX diffBits-16 316987
XXX diffBits-17 34798
XXX diffBits-18 114866
XXX diffBits-19 298345
XXX diffBits-20 98412
XXX diffBits-21 30787
XXX diffBits-22 196420
XXX diffBits-23 0
XXX diffBits-24 0
XXX diffBits-25 0
XXX diffBits-26 0
XXX diffBits-27 0
XXX diffBits-28 0
XXX diffBits-29 0
XXX diffBits-30 0
XXX diffBits-31 0
XXX diffBits-32 0
XXX diffBits-33 0
XXX diffBits-34 0
XXX diffBits-35 0
XXX diffBits-36 0
XXX diffBits-37 0
XXX diffBits-38 0
XXX diffBits-39 0
XXX diffBits-40 0
XXX diffBits-41 0
XXX diffBits-42 0
XXX diffBits-43 0
XXX diffBits-44 0
XXX diffBits-45 99103
XXX diffBits-46 0
XXX diffBits-47 0
XXX diffBits-48 0
XXX diffBits-49 0
XXX diffBits-50 0
XXX diffBits-51 0
XXX diffBits-52 0
XXX diffBits-53 0
XXX diffBits-54 0
XXX diffBits-55 0
XXX diffBits-56 0
XXX diffBits-57 0
XXX diffBits-58 0
XXX diffBits-59 0
XXX diffBits-60 0
XXX diffBits-61 0
XXX diffBits-62 0
XXX diffBits-63 0
XXX diffBits-64 0
XXX diffBits-65 0
CPU 0 L1D next line prefetcher final stats

DRAM Statistics
 CHANNEL 0
 RQ ROW_BUFFER_HIT:     433572  ROW_BUFFER_MISS:    1027591
 DBUS_CONGESTED:    1324569
 WQ ROW_BUFFER_HIT:     241204  ROW_BUFFER_MISS:     652219  FULL:          0

 AVG_CONGESTED_CYCLE: 6

CPU 0 Branch Prediction Accuracy: 94.8566% MPKI: 8.50748 Average ROB Occupancy at Mispredict: 70.6192

XXX total_mispredicts 425374
XXX total_target_mispredicts1 286980
XXX total_target_mispredicts2 1978
XXX total_direction_mispredicts 136416
XXX mispredict_on_btb_hit 272156
XXX NOT_BRANCH: 0
XXX BRANCH_DIRECT_JUMP: 122
XXX BRANCH_INDIRECT: 0
XXX BRANCH_CONDITIONAL: 0
XXX BRANCH_DIRECT_CALL: 198
XXX BRANCH_INDIRECT_CALL: 28578
XXX BRANCH_RETURN: 243258
XXX BRANCH_OTHER: 0
Branch types
NOT_BRANCH: 41729373 83.4587%
BRANCH_DIRECT_JUMP: 458218 0.916436%
BRANCH_INDIRECT: 49088 0.098176%
BRANCH_CONDITIONAL: 5938509 11.877%
BRANCH_DIRECT_CALL: 745128 1.49026%
BRANCH_INDIRECT_CALL: 167106 0.334212%
BRANCH_RETURN: 912219 1.82444%
BRANCH_OTHER: 0 0%

XXX BTB_reads: 5106419
XXX BTB_writes: 16403
XXX PageBTB_reads: 0
XXX PageBTB_writes: 0
XXX PageBTB_readsBeforeWrite: 0
XXX RegionBTB_reads: 0
XXX RegionBTB_writes: 0
XXX RegionBTB_readsBeforeWrite: 0
XXX BTB_4D_Hits 832127
XXX BTB_6D_Hits 909852
XXX BTB_8D_Hits 1085573
XXX BTB_12D_Hits 468038
XXX BTB_18D_Hits 552373
XXX BTB_25D_Hits 113354
XXX BTB_46D_Hits 38581
XXX BTB_Ret_Hits 912170
XXX BTB_4D_Misses 65
XXX BTB_6D_Misses 43
XXX BTB_8D_Misses 361
XXX BTB_12D_Misses 588
XXX BTB_18D_Misses 648
XXX BTB_25D_Misses 3232
XXX BTB_46D_Misses 11417
XXX BTB_Ret_Misses 49
XXX Num_unique_branches 4432
total instructions: 0
wc,tif,trb
3,6,31
8,34,46
5,10,61
7,13,58
4,23,46
6,26,40
8,35,45
4,13,62
13,68,111
151,826,2838
89,630,1117
12,51,209
13,75,189
9,34,93
5,5,62
5,20,45
104,822,1640
5,14,11
5,9,44
5,11,28
10,61,75
5,4,23
6,6,50
5,5,22
11,44,138
5,10,30
16,108,146
4,6,33
4,7,48
13,46,149
32,259,455
5,10,26
6,13,51
7,20,51
4,4,31
8,26,54
4,0,28
5,12,32
5,5,27
5,17,45
5,7,20
495,3553,7320
4,5,22
8,32,48
7,14,82
4,4,31
5,9,42
19,162,87
23,110,277
482,4282,6218
2,2,17
109,665,717
10,63,53
3,3,21
4,3,18
7,31,49
4,6,47
5,7,57
7,52,72
4,1,34
8,26,54
5,17,29
7,22,71
1,0,7
5,13,12
8,26,72
5,19,47
4,2,33
7,38,23
6,13,63
5,16,41
7,28,57
8,29,106
5,14,11
4,4,35
5,14,22
6,16,49
5,9,26
5,8,24
8,61,119
5,9,44
4,7,32
13,43,118
5,13,27
473,3897,6430
4,13,26
12,51,117
8,14,66
8,17,63
16,108,122
4,8,38
6,12,42
14,77,114
2,6,20
8,42,38
10,50,96
4,12,37
2,1,3
4,6,29
21,57,373
6,19,45
6,18,47
4,8,31
6,11,39
5,9,22
6,13,31
10,50,66
8,33,68
2,5,19
5,6,25
5,7,39
7,25,30
4,8,33
63,366,971
5,9,34
50,397,762
4,4,42
5,20,34
6,6,44
8,26,54
4,4,33
3,15,24
5,10,33
3,8,31
10,39,171
12,140,106
13,27,125
71,593,923
20,120,260
7,44,64
7,21,34
7,16,39
134,1034,580
5,12,83
1,3,16
6,18,32
6,16,28
5,9,39
2,1,8
5,11,14
7,19,57
9,34,59
11,27,179
8,34,46
7,24,31
4,8,54
4,4,28
10,42,78
59,302,517
66,267,478
5,15,26
7,35,40
6,31,44
8,34,100
4,2,30
3,2,25
8,49,31
5,17,36
55,222,939
11,94,70
8,37,43
3,8,36
7,33,42
5,6,43
6,19,61
3,6,14
4,11,44
11,40,174
3,3,19
5,8,27
5,13,33
6,14,38
19,88,138
3,5,6
3,4,33
8,32,94
2,5,20
9,52,53
3,5,4
6,29,42
6,19,31
5,7,39
3,7,20
7,12,61
6,12,44
8,36,61
3,3,17
3,3,25
4,7,24
5,7,53
3,6,38
2,4,0
19,99,174
4,1,23
3,2,18
3,8,26
6,12,63
6,4,46
4,5,11
5,3,46
4,9,25
37,212,549
6,19,31
3,8,20
6,11,85
3,3,13
5,12,25
5,4,28
7,15,40
14,95,103
2,0,9
10,69,61
2,10,22
6,18,66
6,6,54
10,58,114
5,7,24
6,15,53
5,15,38
5,6,39
9,57,68
4,6,18
3,5,6
8,41,80
4,6,28
3,1,13
3,3,13
5,9,34
12,31,169
6,7,29
7,29,87
2,0,4
8,33,47
42,186,783
7,27,53
11,34,98
1225,3662,26862
13,48,91
5,12,39
5,15,38
5,15,40
6,25,43
10,45,93
12,39,132
7,25,30
6,16,34
5,16,11
5,14,46
11,46,83
2,11,19
5,5,24
5,2,41
16,145,117
5,5,38
3,12,27
4,6,18
29,273,238
6,11,50
3,5,25
5,5,40
3,6,17
13,35,227
5,6,58
4,5,36
8,29,51
4,9,25
5,5,38
17,96,151
6,15,37
7,16,53
3,0,24
7,23,57
147,1006,2180
6,8,42
21,168,171
5,29,35
39,142,638
344,811,3429
7,19,42
2,3,17
7,47,55
5,14,46
6,26,50
5,6,44
2,5,27
3,1,15
23,117,234
3,5,21
6,8,63
5,6,19
6,11,53
5,11,32
7,25,30
5,15,31
6,10,34
5,20,25
6,27,57
6,35,36
9,48,95
9,44,66
7,35,41
1,0,19
7,23,53
12,104,99
7,25,44
202,901,2989
0,0,0
6,10,65
6,27,46
4,9,36
5,10,52
4,7,9
5,32,39
4,15,31
5,10,55
8,37,64
3,7,21
4,17,47
2,4,30
5,22,49
3,8,20
8,21,59
5,12,31
13,109,102
6,6,45
4,5,36
7,19,42
5,9,16
7,45,56
5,13,38
12,55,153
9,60,45
7,34,83
4,10,36
224,1518,3756
26,159,317
4,9,26
3,10,41
6,18,37
82,371,1361
5,19,31
94,310,1480
180,2073,2263
6,18,33
4,6,14
4,6,14
8,19,95
5,7,39
40,160,412
6,18,26
5,29,42
9,68,66
4,6,24
2,0,19
12,87,59
10,43,87
29,328,131
8,25,55
6,16,20
7,22,47
4,8,48
5,1,34
34,243,301
2,3,27
7,19,50
16,91,165
5,15,22
6,14,55
5,12,40
298,3922,3081
9,33,87
8,24,94
6,12,36
6,13,49
18,136,80
7,32,37
3,6,22
6,11,60
4,4,40
5,4,31
232,2403,1831
2,2,18
5,19,45
1,2,17
10,30,131
5,5,20
12,38,209
11,72,146
3,4,37
6,16,20
2,6,30
7,7,68
5,21,48
15,77,124
5,11,25
11,43,158
4,4,39
7,28,41
5,1,28
4,8,31
12,96,72
8,23,77
16,58,240
6,3,41
5,8,33
275,604,3245
7,33,38
5,10,83
9,63,70
6,22,33
10,29,69
7,17,38
21,108,216
13,49,174
17,141,179
5,9,38
7,36,19
7,12,64
7,14,57
5,9,41
4,6,35
3,0,31
6,6,48
25,187,163
5,26,62
2,9,35
4,4,44
3,6,18
10,64,156
7,9,60
7,17,56
7,37,43
8,17,63
71,283,1466
5,3,53
7,16,64
8,19,95
6,8,58
7,21,59
5,7,24
483,3582,6631
18,121,127
3,20,35
9,40,127
24,131,285
3,1,23
6,13,53
6,9,42
6,2,44
5,15,10
133,722,2423
6,17,52
58,394,766
11,69,141
7,25,30
12,44,138
9,55,65
19,70,275
291,2288,4885
640,5133,4920
7,13,85
4,7,33
10,49,109
4,12,34
5,9,51
2,1,12
4,8,27
4,11,21
8,28,108
15,87,175
18,68,246
5,3,45
4,3,36
211,2002,1827
10,39,92
9,36,135
116,1395,1357
11,62,65
7,24,45
7,22,53
4,7,29
4,3,36
8,38,47
369,3252,4249
3,4,7
5,5,24
13,105,75
3,4,37
8,42,38
494,3133,7217
9,24,92
6,16,51
5,1,41
21,135,66
5,10,52
4,18,37
14,70,114
5,11,38
4,7,42
14,57,146
3,6,22
7,18,53
23,132,179
1,2,17
11,36,119
3,0,35
224,2526,2788
4,16,50
19,131,242
6,51,73
14,73,143
7,25,75
