Initialize SIGNATURE TABLE
ST_SET: 1
ST_WAY: 256
ST_TAG_BIT: 16
ST_TAG_MASK: ffff

Initialize PATTERN TABLE
PT_SET: 512
PT_WAY: 4
SIG_DELTA_BIT: 7
C_SIG_BIT: 4
C_DELTA_BIT: 4

Initialize PREFETCH FILTER
FILTER_SET: 1024

*** ChampSim Multicore Out-of-Order Simulator ***

Warmup Instructions: 50000000
Simulation Instructions: 50000000
Number of CPUs: 1
LLC sets: 2048
LLC ways: 16
Off-chip DRAM Size: 4096 MB Channels: 1 Width: 64-bit Data Rate: 3200 MT/s

CPU 0 runs /ChampSim-master-BTBX/dpc3_traces/server_032.champsimtrace.xz
Basic BTB sets: 4096 ways: 4 indirect buffer size: 4096 RAS size: 64
CPU 0 L1D next line prefetcher
Heartbeat CPU 0 instructions: 10000002 cycles: 3527297 heartbeat IPC: 2.83503 cumulative IPC: 2.83503 (Simulation time: 0 hr 5 min 36 sec) 
Heartbeat CPU 0 instructions: 20000003 cycles: 7055273 heartbeat IPC: 2.83449 cumulative IPC: 2.83476 (Simulation time: 0 hr 7 min 33 sec) 
Heartbeat CPU 0 instructions: 30000000 cycles: 10582914 heartbeat IPC: 2.83475 cumulative IPC: 2.83476 (Simulation time: 0 hr 7 min 51 sec) 
Heartbeat CPU 0 instructions: 40000003 cycles: 14111890 heartbeat IPC: 2.83368 cumulative IPC: 2.83449 (Simulation time: 0 hr 8 min 10 sec) 
Heartbeat CPU 0 instructions: 50000000 cycles: 17639623 heartbeat IPC: 2.83468 cumulative IPC: 2.83453 (Simulation time: 0 hr 8 min 28 sec) 

Warmup complete CPU 0 instructions: 50000004 cycles: 17639624 (Simulation time: 0 hr 8 min 28 sec) 

Heartbeat CPU 0 instructions: 60000002 cycles: 31904403 heartbeat IPC: 0.701027 cumulative IPC: 0.701027 (Simulation time: 0 hr 26 min 47 sec) 
Heartbeat CPU 0 instructions: 70000001 cycles: 46169911 heartbeat IPC: 0.700991 cumulative IPC: 0.701009 (Simulation time: 0 hr 27 min 5 sec) 
*** Reached end of trace for Core: 0 Repeating trace: /ChampSim-master-BTBX/dpc3_traces/server_032.champsimtrace.xz
Heartbeat CPU 0 instructions: 80000003 cycles: 60414421 heartbeat IPC: 0.702025 cumulative IPC: 0.701348 (Simulation time: 0 hr 27 min 23 sec) 
Heartbeat CPU 0 instructions: 90000002 cycles: 74634778 heartbeat IPC: 0.703217 cumulative IPC: 0.701814 (Simulation time: 0 hr 44 min 57 sec) 
Heartbeat CPU 0 instructions: 100000001 cycles: 88877010 heartbeat IPC: 0.702137 cumulative IPC: 0.701879 (Simulation time: 0 hr 45 min 15 sec) 
Finished CPU 0 instructions: 50000002 cycles: 71237398 cumulative IPC: 0.701878 (Simulation time: 0 hr 45 min 15 sec) 

ChampSim completed all CPUs

Region of Interest Statistics

CPU 0
XXX cumulative-IPC 0.701878
XXX instructions 50000002
XXX cycles 71237398
L1D TOTAL     ACCESS:   22905040  HIT:   21071589  MISS:    1833451
L1D LOAD      ACCESS:    8228357  HIT:    7452716  MISS:     775641
L1D RFO       ACCESS:    6698721  HIT:    6404226  MISS:     294495
L1D PREFETCH  ACCESS:    7977962  HIT:    7214647  MISS:     763315
L1D WRITEBACK ACCESS:          0  HIT:          0  MISS:          0
L1D PREFETCH  REQUESTED:    8283210  ISSUED:    8175540
XXX L1D-USEFUL 189912
XXX L1D-USELESS 573402
L1D AVERAGE MISS LATENCY: 19.9525 cycles
L1I TOTAL     ACCESS:   14506722  HIT:   10590308  MISS:    3916414
L1I LOAD      ACCESS:    9288905  HIT:    7189502  MISS:    2099403
L1I RFO       ACCESS:          0  HIT:          0  MISS:          0
L1I PREFETCH  ACCESS:    5217817  HIT:    3400806  MISS:    1817011
L1I WRITEBACK ACCESS:          0  HIT:          0  MISS:          0
L1I PREFETCH  REQUESTED:    8440418  ISSUED:    8440418
XXX L1I-USEFUL 1131972
XXX L1I-USELESS 685049
L1I AVERAGE MISS LATENCY: 12.9843 cycles
L2C TOTAL     ACCESS:    8204559  HIT:    7284084  MISS:     920475
L2C LOAD      ACCESS:    1836638  HIT:    1576922  MISS:     259716
L2C RFO       ACCESS:     290814  HIT:     235779  MISS:      55035
L2C PREFETCH  ACCESS:    5440641  HIT:    4844163  MISS:     596478
L2C WRITEBACK ACCESS:     636466  HIT:     627220  MISS:       9246
L2C PREFETCH  REQUESTED:    5423910  ISSUED:    5423717
XXX L2C-USEFUL 22808
XXX L2C-USELESS 573158
L2C AVERAGE MISS LATENCY: 32.6096 cycles
LLC TOTAL     ACCESS:    2157257  HIT:    2151741  MISS:       5516
LLC LOAD      ACCESS:     259601  HIT:     259114  MISS:        487
LLC RFO       ACCESS:      55035  HIT:      55035  MISS:          0
LLC PREFETCH  ACCESS:    1728148  HIT:    1723128  MISS:       5020
LLC WRITEBACK ACCESS:     114473  HIT:     114464  MISS:          9
LLC PREFETCH  REQUESTED:          0  ISSUED:          0
XXX LLC-USEFUL 400
XXX LLC-USELESS 1674
LLC AVERAGE MISS LATENCY: 146.156 cycles
Major fault: 0 Minor fault: 1183
XXX disp-0 2585080
XXX disp-1 0
XXX disp-2 1745
XXX disp-3 383176
XXX disp-4 1144671
XXX disp-5 1139477
XXX disp-6 885226
XXX disp-7 778059
XXX disp-8 586556
XXX disp-9 436828
XXX disp-10 282566
XXX disp-11 255379
XXX disp-12 116954
XXX disp-13 172938
XXX disp-14 141383
XXX disp-15 179813
XXX disp-16 94385
XXX disp-17 47261
XXX disp-18 172963
XXX disp-19 104723
XXX disp-20 134376
XXX disp-21 330123
XXX disp-22 186706
XXX disp-23 470228
XXX disp-24 83766
XXX disp-25 0
XXX disp-26 0
XXX disp-27 0
XXX disp-28 0
XXX disp-29 0
XXX disp-30 0
XXX disp-31 0
XXX disp-32 0
XXX disp-33 0
XXX disp-34 0
XXX disp-35 0
XXX disp-36 0
XXX disp-37 0
XXX disp-38 0
XXX disp-39 0
XXX disp-40 0
XXX disp-41 0
XXX disp-42 0
XXX disp-43 0
XXX disp-44 0
XXX disp-45 0
XXX disp-46 251824
XXX disp-47 0
XXX disp-48 0
XXX disp-49 0
XXX disp-50 0
XXX disp-51 0
XXX disp-52 0
XXX disp-53 0
XXX disp-54 0
XXX disp-55 0
XXX disp-56 0
XXX disp-57 0
XXX disp-58 0
XXX disp-59 0
XXX disp-60 0
XXX disp-61 0
XXX disp-62 0
XXX disp-63 0
XXX disp-64 0
XXX disp-65 0
XXX diffBits-0 2585080
XXX diffBits-1 1745
XXX diffBits-2 157033
XXX diffBits-3 621133
XXX diffBits-4 773230
XXX diffBits-5 856848
XXX diffBits-6 874155
XXX diffBits-7 609601
XXX diffBits-8 552540
XXX diffBits-9 645928
XXX diffBits-10 303659
XXX diffBits-11 286533
XXX diffBits-12 216537
XXX diffBits-13 184964
XXX diffBits-14 101279
XXX diffBits-15 132689
XXX diffBits-16 151845
XXX diffBits-17 120676
XXX diffBits-18 75050
XXX diffBits-19 171207
XXX diffBits-20 265431
XXX diffBits-21 291770
XXX diffBits-22 533034
XXX diffBits-23 0
XXX diffBits-24 0
XXX diffBits-25 202415
XXX diffBits-26 0
XXX diffBits-27 0
XXX diffBits-28 0
XXX diffBits-29 0
XXX diffBits-30 0
XXX diffBits-31 0
XXX diffBits-32 0
XXX diffBits-33 0
XXX diffBits-34 0
XXX diffBits-35 0
XXX diffBits-36 0
XXX diffBits-37 0
XXX diffBits-38 0
XXX diffBits-39 0
XXX diffBits-40 0
XXX diffBits-41 0
XXX diffBits-42 0
XXX diffBits-43 0
XXX diffBits-44 0
XXX diffBits-45 251824
XXX diffBits-46 0
XXX diffBits-47 0
XXX diffBits-48 0
XXX diffBits-49 0
XXX diffBits-50 0
XXX diffBits-51 0
XXX diffBits-52 0
XXX diffBits-53 0
XXX diffBits-54 0
XXX diffBits-55 0
XXX diffBits-56 0
XXX diffBits-57 0
XXX diffBits-58 0
XXX diffBits-59 0
XXX diffBits-60 0
XXX diffBits-61 0
XXX diffBits-62 0
XXX diffBits-63 0
XXX diffBits-64 0
XXX diffBits-65 0
CPU 0 L1D next line prefetcher final stats

DRAM Statistics
 CHANNEL 0
 RQ ROW_BUFFER_HIT:       1466  ROW_BUFFER_MISS:       4041
 DBUS_CONGESTED:        621
 WQ ROW_BUFFER_HIT:          0  ROW_BUFFER_MISS:         14  FULL:          0

 AVG_CONGESTED_CYCLE: 4

CPU 0 Branch Prediction Accuracy: 79.7712% MPKI: 37.5192 Average ROB Occupancy at Mispredict: 36.9827

XXX total_mispredicts 1875959
XXX total_target_mispredicts1 1428911
XXX total_target_mispredicts2 271637
XXX total_direction_mispredicts 175411
XXX mispredict_on_btb_hit 664322
XXX NOT_BRANCH: 0
XXX BRANCH_DIRECT_JUMP: 17497
XXX BRANCH_INDIRECT: 15963
XXX BRANCH_CONDITIONAL: 0
XXX BRANCH_DIRECT_CALL: 20409
XXX BRANCH_INDIRECT_CALL: 14488
XXX BRANCH_RETURN: 595965
XXX BRANCH_OTHER: 0
Branch types
NOT_BRANCH: 40725929 81.4519%
BRANCH_DIRECT_JUMP: 508368 1.01674%
BRANCH_INDIRECT: 180051 0.360102%
BRANCH_CONDITIONAL: 5999625 11.9992%
BRANCH_DIRECT_CALL: 1086730 2.17346%
BRANCH_INDIRECT_CALL: 206109 0.412218%
BRANCH_RETURN: 1292826 2.58565%
BRANCH_OTHER: 0 0%

XXX BTB_reads: 22465512
XXX BTB_writes: 1018793
XXX PageBTB_reads: 0
XXX PageBTB_writes: 0
XXX PageBTB_readsBeforeWrite: 0
XXX RegionBTB_reads: 0
XXX RegionBTB_writes: 0
XXX RegionBTB_readsBeforeWrite: 0
XXX BTB_4D_Hits 752068
XXX BTB_6D_Hits 787081
XXX BTB_8D_Hits 748118
XXX BTB_12D_Hits 342022
XXX BTB_18D_Hits 286586
XXX BTB_25D_Hits 227639
XXX BTB_46D_Hits 73852
XXX BTB_Ret_Hits 1246737
XXX BTB_4D_Misses 24502
XXX BTB_6D_Misses 24297
XXX BTB_8D_Misses 87699
XXX BTB_12D_Misses 122209
XXX BTB_18D_Misses 78684
XXX BTB_25D_Misses 221891
XXX BTB_46D_Misses 413422
XXX BTB_Ret_Misses 46089
XXX Num_unique_branches 6346
total instructions: 0
wc,tif,trb
6924,36409,136605
24,150,186
20,38,324
96,762,1178
9,22,119
8,29,51
3495,22691,43652
6983,24430,129153
5290,57803,63158
1749,26170,17478
338,4098,3242
6992,31551,122222
5,25,69
12,29,159
5,6,61
7,3,68
228,2553,3027
6,9,52
5237,19199,111682
5,14,32
3496,24446,62852
5,10,45
3496,22691,64617
3492,12212,75024
5191,20749,108920
11701,80671,86070
12,85,71
3491,13950,73211
1749,6982,36680
3,9,32
5240,22253,108647
2,4,12
4504,52324,42518
7,12,77
3603,11108,78887
7,25,46
3495,10476,76793
3494,12216,75048
3495,13970,73331
791,1972,17776
5,17,43
7,18,37
8,18,62
7,19,75
7,18,43
6,16,35
8,24,56
5240,15716,115170
3495,5250,82026
15,49,224
85,673,1188
3720,31354,60182
10420,63706,115240
4,11,5
5,10,40
5257,29742,101401
3493,20935,66329
5,13,40
1753,7007,26228
5,3,32
2,0,11
8734,40156,132650
6871,60181,91246
3,0,32
7,17,38
9758,71860,99348
5,11,48
5,12,59
5270,62286,57284
7,27,49
5,7,28
5238,47104,68044
3493,13961,73291
1750,5243,38421
9,30,89
5,7,29
4887,25875,87749
4,13,36
3503,27111,60300
3520,21009,45623
5,23,48
5,9,41
3494,10480,76780
4,5,11
8731,50499,141596
4,2,22
2,1,11
14545,54111,183810
12176,84864,104726
8,38,42
9732,78666,77083
5,5,55
3495,13966,73330
5,6,54
3861,18632,75538
14,77,135
4538,19773,87314
8,43,37
8702,33073,139172
7,26,89
4,1,50
3954,28893,67094
3493,5235,82011
13777,111040,72661
3,4,37
3,3,10
12218,71544,134377
1752,19,8781
6,31,72
8,20,60
5238,29664,101223
8787,68256,129451
1748,8721,34914
7,17,56
8,44,36
8,21,59
11,31,222
9,61,44
4,6,54
13961,85502,99475
8,23,71
2895,31739,40438
3496,15724,71570
18,99,181
5,2,42
5,6,33
5,11,53
7,41,103
6987,34927,139625
6,22,24
7,18,37
9160,95043,44515
5672,77843,40955
3496,10480,76853
2,1,8
227,782,4787
6,15,47
5,14,55
8,26,54
8,27,53
226,1335,4230
8,17,63
7,15,54
3496,6994,80302
7,18,37
5231,29652,85348
3,2,7
8,27,53
30,276,202
3497,19215,68090
9598,57651,136947
15691,95887,156860
2,1,8
5,28,43
6,7,45
2,4,21
3521,21119,66474
4,7,28
2894,14456,57766
29,206,265
342,2175,3789
4,5,46
6,17,47
11380,44639,145623
20,54,142
5,16,50
1756,13976,29852
5,14,50
8,42,38
7,25,36
7,33,42
3494,12229,75067
24,196,171
1,1,6
5,7,43
8,49,31
3492,8728,78517
5,11,48
2,0,25
6983,45374,108194
6,30,14
7,25,83
2,1,6
6,16,34
5241,36611,78504
7,21,50
10,24,120
10,40,84
6982,29662,123889
8723,50586,146530
12,18,223
14361,85159,135178
3719,29500,60855
4,6,39
6,14,50
3,0,20
8,41,39
7,16,64
1758,17512,15764
8,30,50
5,18,7
3493,34893,52365
6,12,24
6,19,31
5,5,59
6,23,13
6,11,55
11,24,97
6,4,32
13976,116366,85539
5,10,33
4,12,18
7,33,100
6,13,35
1754,5267,38469
2336,18645,25673
8729,76769,62808
4,11,49
5,9,44
2,3,22
7,22,53
5,11,18
6,11,39
3494,10483,76788
3,1,19
1753,19210,14027
4,7,9
6985,29670,123907
3,0,30
26,175,262
4,6,47
3,5,4
6989,72058,64719
3720,10376,82547
3501,13990,73412
4937,25161,89503
1752,9,43707
4170,43954,53418
3,4,27
5237,10470,120408
6,22,28
5,5,63
10,31,119
4,15,49
10470,71525,101167
6984,47122,78546
8749,50692,115165
2,13,31
6111,64496,72465
3190,24441,55225
3,10,13
5,10,61
5,28,36
12215,57580,143082
4,6,39
3495,13989,73266
10468,59326,125600
4017,30861,41504
4,6,34
3491,5235,81994
3493,13961,73296
4,8,33
5,10,46
7,19,56
6983,47108,57602
3496,15714,71580
1,0,7
5579,16874,119119
3496,41897,45383
5,6,19
2,0,5
3470,12145,74506
1722,22354,20660
5,5,44
3498,17484,69840
3984,46328,41146
5212,19088,111151
8,27,53
7,23,46
5245,33166,87440
4324,9509,82775
6,11,25
8,20,60
3493,6981,80287
2,5,20
3,6,21
13960,59320,164017
3495,24450,62819
15337,53966,172255
8,46,34
3496,24433,62847
8,54,26
10,32,74
7498,33654,84777
9,17,88
4,10,6
5238,47111,68062
7,21,40
7,14,61
5,17,51
5,21,32
3496,19192,68100
6,9,42
8,32,48
8,9,71
6986,65595,61603
6,7,29
13,68,144
5,14,38
18,75,163
13,64,132
7,19,36
1748,8722,34919
310,1535,6136
13,100,130
5,14,41
6985,33161,120410
5254,50658,69868
5231,33125,97619
1749,8731,34914
9325,79160,87815
14,53,199
17447,124264,95970
19193,93049,150032
5238,13970,106469
2,5,20
8716,108379,30829
8,33,47
6,6,46
6,22,54
15002,97465,170821
4952,38642,76267
6373,37077,103038
3500,36671,50655
3509,14090,73331
3551,9102,79247
6982,52336,101204
56,214,1112
9,47,44
3528,38562,49128
11,39,141
8724,61083,136034
13963,78560,95971
8,15,65
3494,13963,73291
7,10,65
9870,88982,96343
5242,22706,108254
3492,27922,59354
4368,22697,86399
3516,48944,38552
6994,41909,111783
5,8,51
11,64,76
17270,86422,132969
5027,18775,97600
8777,71581,94196
8554,81084,78164
179,621,3748
79,306,1555
3498,27933,59364
5,13,40
7,22,33
7,10,59
8734,50622,146650
18020,114763,115561
1437,4303,31532
34,409,415
3500,5292,82088
3473,19823,56119
5349,30201,102059
2177,18441,35822
1752,20961,22733
4,11,21
8,38,42
6,23,37
3487,19164,67903
5,11,38
8640,53626,113699
3495,20943,66326
12045,77330,119023
8,39,87
7899,37001,133482
5,10,47
6,18,53
7,16,53
5,10,50
5348,30811,86792
6986,33170,120426
5240,12456,107985
6982,13960,139560
11345,60207,168400
8,33,72
22236,115564,178184
3496,12234,75071
6988,20994,132673
1763,24575,8829
13966,70689,76779
3492,19198,68051
10,32,98
8954,54397,111174
17448,59329,240763
6996,71533,82153
8,34,46
3500,17465,69905
5251,19255,111813
8,29,51
3499,12240,75113
16297,92446,154324
8,19,106
10,38,80
3469,32743,53478
8746,67158,130172
13670,64299,136153
16760,77713,169706
1233,4937,25782
34,264,206
4,13,38
22,129,162
3631,12411,77445
5,7,33
8,49,31
78,747,807
12216,83796,106424
3492,26173,61061
7,54,17
3495,31402,55885
6,9,62
10263,66805,103818
5,5,51
5,10,54
12215,91148,109924
7,25,50
334,2021,3553
3497,26200,61105
4,8,33
10,35,103
5239,17460,113401
3495,27926,59354
3552,31894,56450
8740,63690,99573
10497,75124,92420
5240,49092,66112
6,13,54
13970,76850,171043
10232,55624,180506
2701,15249,52176
9095,38133,110753
19,107,223
3502,17487,69907
10475,62868,129107
10475,52360,157096
5240,13974,116936
213,1612,3295
6,9,43
5244,68066,47149
3495,6990,80290
5254,62591,57949
7902,57035,87699
22683,102954,240751
4976,28528,76408
2,0,5
8,23,57
5241,10488,120417
20612,122854,161063
3,4,5
5235,15700,115150
1750,10,43642
3,14,35
7,23,57
12,40,160
3492,13958,73283
8726,48852,116884
1748,5364,38283
11,66,83
5243,37578,78581
3493,10477,76778
18913,118106,179975
12251,95850,83875
122,596,2356
8729,45373,151834
6,9,56
2735,25942,42348
21219,130334,112259
5239,6990,95981
5,10,54
8,49,31
4841,17217,103767
3,1,15
4745,55092,49103
10468,52357,139465
8,18,62
5235,33136,81999
10476,55865,136137
3492,17450,69819
5,17,45
3499,8799,57656
8,20,118
3493,5235,82024
1751,17472,26224
5,10,35
7,17,38
3507,33226,54213
6,30,30
5,9,33
7,23,77
3579,23338,65585
3,3,41
7461,54402,104407
3512,29742,57867
10474,50605,141354
13,82,156
